   Input file: C:\Users\Michael\Dropbox (Personal)\work\MIT Graduate Work\Research\Radium Sorption\Surface Complexation\PHREEQC Modeling\Radium Simple Complexation Model.pqi
  Output file: C:\Users\Michael\Dropbox (Personal)\work\MIT Graduate Work\Research\Radium Sorption\Surface Complexation\PHREEQC Modeling\Radium Simple Complexation Model.pqo
Database file: C:\Program Files (x86)\USGS\Phreeqc Interactive 3.1.4-8929\database\sit.dat

------------------
Reading data base.
------------------

	SOLUTION_MASTER_SPECIES
	SIT
WARNING: Redefinition of parameter, NO3- Na+

	SOLUTION_SPECIES
	PHASES
------------------------------------
Reading input data for simulation 1.
------------------------------------

	DATABASE C:\Program Files (x86)\USGS\Phreeqc Interactive 3.1.4-8929\database\sit.dat
	GAS_PHASE 1
	    fixed_pressure
	    pressure 1
	    volume 1
	    temperature 25
	    CO2(g)    0.00033
	    O2(g)     0.26
	SURFACE_MASTER_SPECIES
	    Fhy           FhyOH        
	SURFACE_SPECIES
	FhyOH + H+ = FhyOH2+
	    log_k     7.29
	FhyOH = FhyOH
	    log_k     0
	FhyOH = FhyO- + H+
	    log_k     -8.93
	FhyOH + Ra+2 = FhyOHRa+2
	    log_k     6.66
	FhyOH + Ra+2 = FhyORa+ + H+
	    log_k     -5.67
	SURFACE 1
	    FhyOH      0.674     600       0.3
	END
------------------
End of simulation.
------------------

------------------------------------
Reading input data for simulation 2.
------------------------------------

	SOLUTION 1
	    units     mol/kgw
	    density   1
	    Ra        5.979e-010
	    Cl        0.01
	    Na        0.01
	    water    1 # kg
	SELECTED_OUTPUT
	    file                 RaEqTest
	    reset                false
	USER_PUNCH
	    headings 
	    start
	10 FOR i = 2 to 10 STEP 0.1
	20 a$ = EOL$ + "USE solution 1" +CHR$(59)+" USE gas_phase 1" +CHR$(59) + "USE surface 1"+ EOL$
	30 a$ = a$ + "EQUILIBRIUM_PHASES 1" + EOL$
	40 a$ = a$ + "NaCl 0 10.0" + EOL$
	50 a$ = a$ + "pH_set" + STR$(-i) + " HCl 10.0"+EOL$
	60 a$ = a$ + "END" + EOL$
	70 PUNCH a$
	80 NEXT i
	    end
	END
-------------------------------------------
Beginning of initial solution calculations.
-------------------------------------------

Initial solution 1.	

WARNING: USER_PUNCH: Headings count does not match number of calls to PUNCH.

-----------------------------Solution composition------------------------------

	Elements           Molality       Moles

	Cl                1.000e-02   1.000e-02
	Na                1.000e-02   1.000e-02
	Ra                5.979e-10   5.979e-10

----------------------------Description of solution----------------------------

                                       pH  =   7.000    
                                       pe  =   4.000    
                        Activity of water  =   1.000
                           Ionic strength  =   1.000e-02
                       Mass of water (kg)  =   1.000e+00
                 Total alkalinity (eq/kg)  =  -1.115e-11
                    Total carbon (mol/kg)  =   0.000e+00
                       Total CO2 (mol/kg)  =   0.000e+00
                         Temperature (°C)  =  25.00
                  Electrical balance (eq)  =   1.207e-09
 Percent error, 100*(Cat-|An|)/(Cat+|An|)  =   0.00
                               Iterations  =   6
                         Gamma iterations  =   3
                      Osmotic coefficient  =   0.96865
                                  Total H  = 1.110198e+02
                                  Total O  = 5.550991e+01

----------------------------Distribution of species----------------------------

                                               Log       Log       Log    mole V
   Species          Molality    Activity  Molality  Activity     Gamma   cm³/mol

   OH-             1.106e-07   9.997e-08    -6.956    -7.000    -0.044     (0)  
   H+              1.104e-07   1.000e-07    -6.957    -7.000    -0.043      0.00
   H2O             5.551e+01   9.997e-01     1.744    -0.000     0.000     18.07
Cl            1.000e-02
   Cl-             1.000e-02   9.035e-03    -2.000    -2.044    -0.044     (0)  
   HCl             1.762e-10   1.762e-10    -9.754    -9.754     0.000     (0)  
   RaCl+           3.142e-12   2.837e-12   -11.503   -11.547    -0.044     (0)  
   RaCl2           2.563e-14   2.563e-14   -13.591   -13.591     0.000     (0)  
   Cl2             0.000e+00   0.000e+00   -43.298   -43.298     0.000     (0)  
   ClO4-           0.000e+00   0.000e+00  -102.135  -102.135     0.000     (0)  
H(0)          1.664e-25
   H2              8.318e-26   8.318e-26   -25.080   -25.080     0.000     (0)  
Na            1.000e-02
   Na+             1.000e-02   9.035e-03    -2.000    -2.044    -0.044     (0)  
O(0)          0.000e+00
   O2              0.000e+00   0.000e+00   -41.980   -41.980     0.000     (0)  
Ra            5.979e-10
   Ra+2            5.947e-10   3.953e-10    -9.226    -9.403    -0.177     (0)  
   RaCl+           3.142e-12   2.837e-12   -11.503   -11.547    -0.044     (0)  
   RaCl2           2.563e-14   2.563e-14   -13.591   -13.591     0.000     (0)  
   Ra(OH)+         1.416e-16   1.279e-16   -15.849   -15.893    -0.044     (0)  
   Ra(OH)2         3.362e-24   3.362e-24   -23.473   -23.473     0.000     (0)  

------------------------------Saturation indices-------------------------------

  Phase               SI** log IAP   log K(298 K,   1 atm)

  Cl2(g)          -42.07      3.91   45.98  Cl2
  H2(g)           -22.00    -22.00    0.00  H2
  H2O(g)           -1.50    -42.99  -41.49  H2O
  Halite           -5.68     -4.09    1.59  NaCl
  HCl(g)          -15.33     -9.04    6.29  HCl
  Na(cr)          -51.93     -6.04   45.89  Na
  Na2O(cr)        -57.55      9.91   67.46  Na2O
  O2(g)           -39.08    -41.98   -2.90  O2
  Ra(cr)         -115.84    -17.40   98.44  Ra
  Ra(OH)2(s)      -26.39      4.60   30.99  Ra(OH)2
  RaCl2:2H2O(s)   -12.76    -13.49   -0.73  RaCl2:2H2O

**For a gas, SI = log10(fugacity). Fugacity = pressure * phi / 1 atm.
  For ideal gases, phi = 1.

------------------
End of simulation.
------------------

------------------------------------
Reading input data for simulation 3.
------------------------------------

	PHASES
	NaCl
	    NaCl = Na+ + Cl-
	    log_k     -20
	PHASES
	pH_set
	    H+=H+
	    log_k     0.0
	END
------------------
End of simulation.
------------------

------------------------------------
Reading input data for simulation 4.
------------------------------------

	SELECTED_OUTPUT
	    file                 RaEqTestOUTPUT
	    reset                true
	    state                false
	    solution             false
	    distance             false
	    time                 false
	    step                 false
	    reaction             false
	    temperature          false
	    totals               Ra  Fhy
	    molalities           Ra(CO3)  Ra(HCO3)+  Ra(OH)+  Ra(OH)2
	                          Ra+2  RaCl+  RaCl2  FhyOHRa+2
	                          FhyORa+
	USER_PUNCH
	10
	USE solution 1
	 USE gas_phase 1
	USE surface 1
	EQUILIBRIUM_PHASES 1
	NaCl 0 10.0
	pH_set          -2 HCl 10.0
	END
-----------------------------------------
Beginning of batch-reaction calculations.
-----------------------------------------

Reaction step 1.

Using solution 1.	
Using surface 1.	
Using pure phase assemblage 1.	
Using gas phase 1.	

-----------------------------------Gas phase-----------------------------------

Total pressure:  1.00      atmospheres 
    Gas volume:   2.29e-01 liters
  Molar volume:   2.45e+01 liters/mole

                                                        Moles in gas
                                            ----------------------------------
Component                log P           P     Initial       Final       Delta

CO2(g)                   -3.51   3.118e-04   1.349e-05   2.922e-06  -1.057e-05
O2(g)                    -0.00   9.997e-01   1.063e-02   9.368e-03  -1.259e-03

-------------------------------Phase assemblage--------------------------------

                                                      Moles in assemblage
Phase               SI  log IAP  log K(T, P)   Initial       Final       Delta

NaCl             -0.00   -20.00    -20.00    1.000e+01   1.001e+01   1.000e-02
pH_set           -2.00    -2.00      0.00
	 HCl                is reactant       1.000e+01   9.972e+00  -2.792e-02

------------------------------Surface composition------------------------------

Fhy           
	  1.650e-02  Surface charge, eq
	  8.848e+00  sigma, C/m²
	  3.587e-01  psi, V
	 -1.396e+01  -F*psi/RT
	  8.625e-07  exp(-F*psi/RT)
	  6.000e+02  specific area, m²/g
	  1.800e+02  m² for   3.000e-01 g


Fhy           
	  6.740e-01  moles
	                                   Mole                     Log
	Species               Moles    Fraction    Molality    Molality

	FhyOH             5.167e-01       0.767   5.167e-01      -0.287
	FhyOH2+           8.689e-02       0.129   8.689e-02      -1.061
	FhyO-             7.039e-02       0.104   7.039e-02      -1.152
	FhyOHRa+2         6.019e-16       0.000   6.019e-16     -15.220
	FhyORa+           3.264e-20       0.000   3.264e-20     -19.486

-----------------------------Solution composition------------------------------

	Elements           Molality       Moles

	C                 1.057e-05   1.057e-05
	Cl                2.792e-02   2.792e-02
	Na                4.685e-19   4.685e-19
	Ra                5.979e-10   5.979e-10

----------------------------Description of solution----------------------------

                                       pH  =   2.000      Charge balance
                                       pe  =  18.770      Adjusted to redox equilibrium
                        Activity of water  =   0.999
                           Ionic strength  =   1.962e-02
                       Mass of water (kg)  =   1.000e+00
                 Total alkalinity (eq/kg)  =  -1.142e-02
                       Total CO2 (mol/kg)  =   1.057e-05
                         Temperature (°C)  =  25.00
                  Electrical balance (eq)  =  -1.650e-02
 Percent error, 100*(Cat-|An|)/(Cat+|An|)  = -42.06
                               Iterations  =  26
                         Gamma iterations  =   3
                      Osmotic coefficient  =   0.96241
                                  Total H  = 1.110312e+02
                                  Total O  = 5.551245e+01

----------------------------Distribution of species----------------------------

                                               Log       Log       Log    mole V
   Species          Molality    Activity  Molality  Activity     Gamma   cm³/mol

   H+              1.137e-02   1.000e-02    -1.944    -2.000    -0.056      0.00
   OH-             1.145e-12   9.993e-13   -11.941   -12.000    -0.059     (0)  
   H2O             5.551e+01   9.993e-01     1.744    -0.000     0.000     18.07
C(-4)         0.000e+00
   CH4             0.000e+00   0.000e+00  -149.626  -149.626     0.000     (0)  
C(4)          1.057e-05
   CO2             1.057e-05   1.057e-05    -4.976    -4.976     0.000     (0)  
   HCO3-           5.403e-10   4.716e-10    -9.267    -9.326    -0.059     (0)  
   CO3-2           3.800e-18   2.206e-18   -17.420   -17.656    -0.236     (0)  
   Ra(HCO3)+       7.201e-19   6.286e-19   -18.143   -18.202    -0.059     (0)  
   Ra(CO3)         2.390e-25   2.390e-25   -24.622   -24.622     0.000     (0)  
   Na(HCO3)        1.087e-28   1.087e-28   -27.964   -27.964     0.000     (0)  
   Na(CO3)-        1.683e-35   1.683e-35   -34.774   -34.774     0.000     (0)  
   CO              0.000e+00   0.000e+00   -51.596   -51.596     0.000     (0)  
Cl            2.792e-02
   Cl-             2.787e-02   2.441e-02    -1.555    -1.612    -0.058     (0)  
   HCl             4.759e-05   4.759e-05    -4.322    -4.322     0.000     (0)  
   RaCl+           7.609e-12   6.642e-12   -11.119   -11.178    -0.059     (0)  
   RaCl2           1.621e-13   1.621e-13   -12.790   -12.790     0.000     (0)  
   Cl2             1.274e-13   1.274e-13   -12.895   -12.895     0.000     (0)  
   ClO4-           3.271e-24   2.866e-24   -23.485   -23.543    -0.057     (0)  
H(0)          0.000e+00
   H2              0.000e+00   0.000e+00   -44.620   -44.620     0.000     (0)  
Na            4.685e-19
   Na+             4.685e-19   4.097e-19   -18.329   -18.388    -0.058     (0)  
   Na(HCO3)        1.087e-28   1.087e-28   -27.964   -27.964     0.000     (0)  
   Na(CO3)-        1.683e-35   1.683e-35   -34.774   -34.774     0.000     (0)  
O(0)          2.517e-03
   O2              1.259e-03   1.259e-03    -2.900    -2.900     0.000     (0)  
Ra            5.979e-10
   Ra+2            5.901e-10   3.426e-10    -9.229    -9.465    -0.236     (0)  
   RaCl+           7.609e-12   6.642e-12   -11.119   -11.178    -0.059     (0)  
   RaCl2           1.621e-13   1.621e-13   -12.790   -12.790     0.000     (0)  
   Ra(HCO3)+       7.201e-19   6.286e-19   -18.143   -18.202    -0.059     (0)  
   Ra(OH)+         1.269e-21   1.108e-21   -20.896   -20.956    -0.059     (0)  
   Ra(CO3)         2.390e-25   2.390e-25   -24.622   -24.622     0.000     (0)  
   Ra(OH)2         2.912e-34   2.912e-34   -33.536   -33.536     0.000     (0)  

------------------------------Saturation indices-------------------------------

  Phase               SI** log IAP   log K(298 K,   1 atm)

  C(cr)           -72.59   -104.74  -32.15  C
  CH4(g)         -146.77   -187.82  -41.05  CH4
  Cl2(g)          -11.66     34.32   45.98  Cl2
  CO(g)           -48.56    -63.20  -14.64  CO
  CO2(g)           -3.51    -21.66  -18.15  CO2
  H2(g)           -41.54    -41.54    0.00  H2
  H2O(g)           -1.50    -42.99  -41.49  H2O
  Halite          -21.59    -20.00    1.59  NaCl
  HCl(g)           -9.90     -3.61    6.29  HCl
  Na(cr)          -83.05    -37.16   45.89  Na
  Na2(CO3)(cr)    -55.55    -54.43    1.12  Na2(CO3)
  Na2CO3:7H2O(s)  -53.97    -54.43   -0.46  Na2CO3:7H2O
  Na2O(cr)       -100.24    -32.78   67.46  Na2O
  NaCl             -0.00    -20.00  -20.00  NaCl
  Nahcolite       -27.30    -38.04  -10.74  Na(HCO3)
  Natron          -53.60    -54.43   -0.83  Na2(CO3):10H2O
  O2(g)            -0.00     -2.90   -2.90  O2
  pH_set           -2.00     -2.00    0.00  H+
  Ra(CO3)(s)      -18.82    -27.12   -8.30  Ra(CO3)
  Ra(cr)         -145.45    -47.01   98.44  Ra
  Ra(OH)2(s)      -36.46     -5.47   30.99  Ra(OH)2
  RaCl2:2H2O(s)   -11.96    -12.69   -0.73  RaCl2:2H2O
  Thermonatrite   -54.91    -54.43    0.48  Na2(CO3):H2O
  Trona           -81.10    -92.48  -11.38  Na3H(CO3)2:2H2O

**For a gas, SI = log10(fugacity). Fugacity = pressure * phi / 1 atm.
  For ideal gases, phi = 1.

------------------
End of simulation.
------------------

------------------------------------
Reading input data for simulation 5.
------------------------------------

	USE solution 1
	 USE gas_phase 1
	USE surface 1
	EQUILIBRIUM_PHASES 1
	NaCl 0 10.0
	pH_set -2.1000e+00 HCl 10.0
	END
-----------------------------------------
Beginning of batch-reaction calculations.
-----------------------------------------

Reaction step 1.

Using solution 1.	
Using surface 1.	
Using pure phase assemblage 1.	
Using gas phase 1.	

-----------------------------------Gas phase-----------------------------------

Total pressure:  1.00      atmospheres 
    Gas volume:   2.29e-01 liters
  Molar volume:   2.45e+01 liters/mole

                                                        Moles in gas
                                            ----------------------------------
Component                log P           P     Initial       Final       Delta

CO2(g)                   -3.51   3.118e-04   1.349e-05   2.922e-06  -1.057e-05
O2(g)                    -0.00   9.997e-01   1.063e-02   9.368e-03  -1.259e-03

-------------------------------Phase assemblage--------------------------------

                                                      Moles in assemblage
Phase               SI  log IAP  log K(T, P)   Initial       Final       Delta

NaCl             -0.00   -20.00    -20.00    1.000e+01   1.001e+01   1.000e-02
pH_set           -2.10    -2.10      0.00
	 HCl                is reactant       1.000e+01   9.978e+00  -2.219e-02

------------------------------Surface composition------------------------------

Fhy           
	  1.323e-02  Surface charge, eq
	  7.093e+00  sigma, C/m²
	  3.534e-01  psi, V
	 -1.375e+01  -F*psi/RT
	  1.063e-06  exp(-F*psi/RT)
	  6.000e+02  specific area, m²/g
	  1.800e+02  m² for   3.000e-01 g


Fhy           
	  6.740e-01  moles
	                                   Mole                     Log
	Species               Moles    Fraction    Molality    Molality

	FhyOH             5.170e-01       0.767   5.170e-01      -0.287
	FhyOH2+           8.514e-02       0.126   8.514e-02      -1.070
	FhyO-             7.191e-02       0.107   7.191e-02      -1.143
	FhyOHRa+2         9.647e-16       0.000   9.647e-16     -15.016
	FhyORa+           5.342e-20       0.000   5.342e-20     -19.272

-----------------------------Solution composition------------------------------

	Elements           Molality       Moles

	C                 1.057e-05   1.057e-05
	Cl                2.219e-02   2.219e-02
	Na                5.752e-19   5.752e-19
	Ra                5.979e-10   5.979e-10

----------------------------Description of solution----------------------------

                                       pH  =   2.100      Charge balance
                                       pe  =  18.670      Adjusted to redox equilibrium
                        Activity of water  =   0.999
                           Ionic strength  =   1.555e-02
                       Mass of water (kg)  =   1.000e+00
                 Total alkalinity (eq/kg)  =  -8.962e-03
                       Total CO2 (mol/kg)  =   1.057e-05
                         Temperature (°C)  =  25.00
                  Electrical balance (eq)  =  -1.323e-02
 Percent error, 100*(Cat-|An|)/(Cat+|An|)  = -42.55
                               Iterations  =  22
                         Gamma iterations  =   3
                      Osmotic coefficient  =   0.96554
                                  Total H  = 1.110288e+02
                                  Total O  = 5.551245e+01

----------------------------Distribution of species----------------------------

                                               Log       Log       Log    mole V
   Species          Molality    Activity  Molality  Activity     Gamma   cm³/mol

   H+              8.931e-03   7.943e-03    -2.049    -2.100    -0.051      0.00
   OH-             1.423e-12   1.258e-12   -11.847   -11.900    -0.054     (0)  
   H2O             5.551e+01   9.994e-01     1.744    -0.000     0.000     18.07
C(-4)         0.000e+00
   CH4             0.000e+00   0.000e+00  -149.626  -149.626     0.000     (0)  
C(4)          1.057e-05
   CO2             1.057e-05   1.057e-05    -4.976    -4.976     0.000     (0)  
   HCO3-           6.718e-10   5.938e-10    -9.173    -9.226    -0.054     (0)  
   CO3-2           5.727e-18   3.497e-18   -17.242   -17.456    -0.214     (0)  
   Ra(HCO3)+       9.437e-19   8.341e-19   -18.025   -18.079    -0.054     (0)  
   Ra(CO3)         3.992e-25   3.992e-25   -24.399   -24.399     0.000     (0)  
   Na(HCO3)        1.700e-28   1.700e-28   -27.769   -27.769     0.000     (0)  
   Na(CO3)-        3.315e-35   3.315e-35   -34.479   -34.479     0.000     (0)  
   CO              0.000e+00   0.000e+00   -51.596   -51.596     0.000     (0)  
Cl            2.219e-02
   Cl-             2.216e-02   1.964e-02    -1.654    -1.707    -0.053     (0)  
   HCl             3.042e-05   3.042e-05    -4.517    -4.517     0.000     (0)  
   RaCl+           6.372e-12   5.633e-12   -11.196   -11.249    -0.054     (0)  
   RaCl2           1.106e-13   1.106e-13   -12.956   -12.956     0.000     (0)  
   Cl2             5.205e-14   5.205e-14   -13.284   -13.284     0.000     (0)  
   ClO4-           2.601e-24   2.306e-24   -23.585   -23.637    -0.052     (0)  
H(0)          0.000e+00
   H2              0.000e+00   0.000e+00   -44.620   -44.620     0.000     (0)  
Na            5.752e-19
   Na+             5.752e-19   5.092e-19   -18.240   -18.293    -0.053     (0)  
   Na(HCO3)        1.700e-28   1.700e-28   -27.769   -27.769     0.000     (0)  
   Na(CO3)-        3.315e-35   3.315e-35   -34.479   -34.479     0.000     (0)  
O(0)          2.517e-03
   O2              1.259e-03   1.259e-03    -2.900    -2.900     0.000     (0)  
Ra            5.979e-10
   Ra+2            5.914e-10   3.611e-10    -9.228    -9.442    -0.214     (0)  
   RaCl+           6.372e-12   5.633e-12   -11.196   -11.249    -0.054     (0)  
   RaCl2           1.106e-13   1.106e-13   -12.956   -12.956     0.000     (0)  
   Ra(HCO3)+       9.437e-19   8.341e-19   -18.025   -18.079    -0.054     (0)  
   Ra(OH)+         1.663e-21   1.470e-21   -20.779   -20.833    -0.054     (0)  
   Ra(CO3)         3.992e-25   3.992e-25   -24.399   -24.399     0.000     (0)  
   Ra(OH)2         4.865e-34   4.865e-34   -33.313   -33.313     0.000     (0)  

------------------------------Saturation indices-------------------------------

  Phase               SI** log IAP   log K(298 K,   1 atm)

  C(cr)           -72.59   -104.74  -32.15  C
  CH4(g)         -146.77   -187.82  -41.05  CH4
  Cl2(g)          -12.05     33.93   45.98  Cl2
  CO(g)           -48.56    -63.20  -14.64  CO
  CO2(g)           -3.51    -21.66  -18.15  CO2
  H2(g)           -41.54    -41.54    0.00  H2
  H2O(g)           -1.50    -42.99  -41.49  H2O
  Halite          -21.59    -20.00    1.59  NaCl
  HCl(g)          -10.10     -3.81    6.29  HCl
  Na(cr)          -82.85    -36.96   45.89  Na
  Na2(CO3)(cr)    -55.16    -54.04    1.12  Na2(CO3)
  Na2CO3:7H2O(s)  -53.58    -54.04   -0.46  Na2CO3:7H2O
  Na2O(cr)        -99.85    -32.39   67.46  Na2O
  NaCl             -0.00    -20.00  -20.00  NaCl
  Nahcolite       -27.11    -37.85  -10.74  Na(HCO3)
  Natron          -53.22    -54.05   -0.83  Na2(CO3):10H2O
  O2(g)            -0.00     -2.90   -2.90  O2
  pH_set           -2.10     -2.10    0.00  H+
  Ra(CO3)(s)      -18.60    -26.90   -8.30  Ra(CO3)
  Ra(cr)         -145.22    -46.78   98.44  Ra
  Ra(OH)2(s)      -36.23     -5.24   30.99  Ra(OH)2
  RaCl2:2H2O(s)   -12.13    -12.86   -0.73  RaCl2:2H2O
  Thermonatrite   -54.52    -54.04    0.48  Na2(CO3):H2O
  Trona           -80.51    -91.89  -11.38  Na3H(CO3)2:2H2O

**For a gas, SI = log10(fugacity). Fugacity = pressure * phi / 1 atm.
  For ideal gases, phi = 1.

------------------
End of simulation.
------------------

------------------------------------
Reading input data for simulation 6.
------------------------------------

	USE solution 1
	 USE gas_phase 1
	USE surface 1
	EQUILIBRIUM_PHASES 1
	NaCl 0 10.0
	pH_set -2.2000e+00 HCl 10.0
	END
-----------------------------------------
Beginning of batch-reaction calculations.
-----------------------------------------

Reaction step 1.

Using solution 1.	
Using surface 1.	
Using pure phase assemblage 1.	
Using gas phase 1.	

-----------------------------------Gas phase-----------------------------------

Total pressure:  1.00      atmospheres 
    Gas volume:   2.29e-01 liters
  Molar volume:   2.45e+01 liters/mole

                                                        Moles in gas
                                            ----------------------------------
Component                log P           P     Initial       Final       Delta

CO2(g)                   -3.51   3.118e-04   1.349e-05   2.922e-06  -1.057e-05
O2(g)                    -0.00   9.997e-01   1.063e-02   9.368e-03  -1.259e-03

-------------------------------Phase assemblage--------------------------------

                                                      Moles in assemblage
Phase               SI  log IAP  log K(T, P)   Initial       Final       Delta

NaCl              0.00   -20.00    -20.00    1.000e+01   1.001e+01   1.000e-02
pH_set           -2.20    -2.20      0.00
	 HCl                is reactant       1.000e+01   9.982e+00  -1.762e-02

------------------------------Surface composition------------------------------

Fhy           
	  1.058e-02  Surface charge, eq
	  5.673e+00  sigma, C/m²
	  3.479e-01  psi, V
	 -1.354e+01  -F*psi/RT
	  1.316e-06  exp(-F*psi/RT)
	  6.000e+02  specific area, m²/g
	  1.800e+02  m² for   3.000e-01 g


Fhy           
	  6.740e-01  moles
	                                   Mole                     Log
	Species               Moles    Fraction    Molality    Molality

	FhyOH             5.171e-01       0.767   5.171e-01      -0.286
	FhyOH2+           8.374e-02       0.124   8.374e-02      -1.077
	FhyO-             7.315e-02       0.109   7.315e-02      -1.136
	FhyOHRa+2         1.552e-15       0.000   1.552e-15     -14.809
	FhyORa+           8.741e-20       0.000   8.741e-20     -19.058

-----------------------------Solution composition------------------------------

	Elements           Molality       Moles

	C                 1.057e-05   1.057e-05
	Cl                1.762e-02   1.762e-02
	Na                7.080e-19   7.080e-19
	Ra                5.979e-10   5.979e-10

----------------------------Description of solution----------------------------

                                       pH  =   2.200      Charge balance
                                       pe  =  18.570      Adjusted to redox equilibrium
                        Activity of water  =   1.000
                           Ionic strength  =   1.231e-02
                       Mass of water (kg)  =   1.000e+00
                 Total alkalinity (eq/kg)  =  -7.041e-03
                       Total CO2 (mol/kg)  =   1.057e-05
                         Temperature (°C)  =  25.00
                  Electrical balance (eq)  =  -1.058e-02
 Percent error, 100*(Cat-|An|)/(Cat+|An|)  = -42.98
                               Iterations  =  24
                         Gamma iterations  =   3
                      Osmotic coefficient  =   0.96861
                                  Total H  = 1.110269e+02
                                  Total O  = 5.551245e+01

----------------------------Distribution of species----------------------------

                                               Log       Log       Log    mole V
   Species          Molality    Activity  Molality  Activity     Gamma   cm³/mol

   H+              7.021e-03   6.310e-03    -2.154    -2.200    -0.046      0.00
   OH-             1.771e-12   1.584e-12   -11.752   -11.800    -0.049     (0)  
   H2O             5.551e+01   9.995e-01     1.744    -0.000     0.000     18.07
C(-4)         0.000e+00
   CH4             0.000e+00   0.000e+00  -149.626  -149.626     0.000     (0)  
C(4)          1.057e-05
   CO2             1.057e-05   1.057e-05    -4.976    -4.976     0.000     (0)  
   HCO3-           8.360e-10   7.476e-10    -9.078    -9.126    -0.049     (0)  
   CO3-2           8.665e-18   5.542e-18   -17.062   -17.256    -0.194     (0)  
   Ra(HCO3)+       1.233e-18   1.102e-18   -17.909   -17.958    -0.049     (0)  
   Ra(CO3)         6.642e-25   6.642e-25   -24.178   -24.178     0.000     (0)  
   Na(HCO3)        2.665e-28   2.665e-28   -27.574   -27.574     0.000     (0)  
   Na(CO3)-        6.542e-35   6.542e-35   -34.184   -34.184     0.000     (0)  
   CO              0.000e+00   0.000e+00   -51.596   -51.596     0.000     (0)  
Cl            1.762e-02
   Cl-             1.760e-02   1.577e-02    -1.754    -1.802    -0.048     (0)  
   HCl             1.941e-05   1.941e-05    -4.712    -4.712     0.000     (0)  
   RaCl+           5.310e-12   4.749e-12   -11.275   -11.323    -0.049     (0)  
   RaCl2           7.491e-14   7.491e-14   -13.125   -13.125     0.000     (0)  
   Cl2             2.118e-14   2.118e-14   -13.674   -13.674     0.000     (0)  
   ClO4-           2.066e-24   1.852e-24   -23.685   -23.732    -0.048     (0)  
H(0)          0.000e+00
   H2              0.000e+00   0.000e+00   -44.620   -44.620     0.000     (0)  
Na            7.080e-19
   Na+             7.080e-19   6.339e-19   -18.150   -18.198    -0.048     (0)  
   Na(HCO3)        2.665e-28   2.665e-28   -27.574   -27.574     0.000     (0)  
   Na(CO3)-        6.542e-35   6.542e-35   -34.184   -34.184     0.000     (0)  
O(0)          2.517e-03
   O2              1.259e-03   1.259e-03    -2.900    -2.900     0.000     (0)  
Ra            5.979e-10
   Ra+2            5.925e-10   3.790e-10    -9.227    -9.421    -0.194     (0)  
   RaCl+           5.310e-12   4.749e-12   -11.275   -11.323    -0.049     (0)  
   RaCl2           7.491e-14   7.491e-14   -13.125   -13.125     0.000     (0)  
   Ra(HCO3)+       1.233e-18   1.102e-18   -17.909   -17.958    -0.049     (0)  
   Ra(OH)+         2.172e-21   1.943e-21   -20.663   -20.712    -0.049     (0)  
   Ra(CO3)         6.642e-25   6.642e-25   -24.178   -24.178     0.000     (0)  
   Ra(OH)2         8.095e-34   8.095e-34   -33.092   -33.092     0.000     (0)  

------------------------------Saturation indices-------------------------------

  Phase               SI** log IAP   log K(298 K,   1 atm)

  C(cr)           -72.59   -104.74  -32.15  C
  CH4(g)         -146.77   -187.82  -41.05  CH4
  Cl2(g)          -12.44     33.54   45.98  Cl2
  CO(g)           -48.56    -63.20  -14.64  CO
  CO2(g)           -3.51    -21.66  -18.15  CO2
  H2(g)           -41.54    -41.54    0.00  H2
  H2O(g)           -1.50    -42.99  -41.49  H2O
  Halite          -21.59    -20.00    1.59  NaCl
  HCl(g)          -10.29     -4.00    6.29  HCl
  Na(cr)          -82.66    -36.77   45.89  Na
  Na2(CO3)(cr)    -54.77    -53.65    1.12  Na2(CO3)
  Na2CO3:7H2O(s)  -53.19    -53.65   -0.46  Na2CO3:7H2O
  Na2O(cr)        -99.46    -32.00   67.46  Na2O
  NaCl              0.00    -20.00  -20.00  NaCl
  Nahcolite       -26.91    -37.65  -10.74  Na(HCO3)
  Natron          -52.82    -53.65   -0.83  Na2(CO3):10H2O
  O2(g)            -0.00     -2.90   -2.90  O2
  pH_set           -2.20     -2.20    0.00  H+
  Ra(CO3)(s)      -18.38    -26.68   -8.30  Ra(CO3)
  Ra(cr)         -145.00    -46.56   98.44  Ra
  Ra(OH)2(s)      -36.01     -5.02   30.99  Ra(OH)2
  RaCl2:2H2O(s)   -12.30    -13.03   -0.73  RaCl2:2H2O
  Thermonatrite   -54.13    -53.65    0.48  Na2(CO3):H2O
  Trona           -79.93    -91.31  -11.38  Na3H(CO3)2:2H2O

**For a gas, SI = log10(fugacity). Fugacity = pressure * phi / 1 atm.
  For ideal gases, phi = 1.

------------------
End of simulation.
------------------

------------------------------------
Reading input data for simulation 7.
------------------------------------

	USE solution 1
	 USE gas_phase 1
	USE surface 1
	EQUILIBRIUM_PHASES 1
	NaCl 0 10.0
	pH_set -2.3000e+00 HCl 10.0
	END
-----------------------------------------
Beginning of batch-reaction calculations.
-----------------------------------------

Reaction step 1.

Using solution 1.	
Using surface 1.	
Using pure phase assemblage 1.	
Using gas phase 1.	

-----------------------------------Gas phase-----------------------------------

Total pressure:  1.00      atmospheres 
    Gas volume:   2.29e-01 liters
  Molar volume:   2.45e+01 liters/mole

                                                        Moles in gas
                                            ----------------------------------
Component                log P           P     Initial       Final       Delta

CO2(g)                   -3.51   3.118e-04   1.349e-05   2.922e-06  -1.057e-05
O2(g)                    -0.00   9.997e-01   1.063e-02   9.368e-03  -1.259e-03

-------------------------------Phase assemblage--------------------------------

                                                      Moles in assemblage
Phase               SI  log IAP  log K(T, P)   Initial       Final       Delta

NaCl              0.00   -20.00    -20.00    1.000e+01   1.001e+01   1.000e-02
pH_set           -2.30    -2.30      0.00
	 HCl                is reactant       1.000e+01   9.986e+00  -1.399e-02

------------------------------Surface composition------------------------------

Fhy           
	  8.450e-03  Surface charge, eq
	  4.530e+00  sigma, C/m²
	  3.423e-01  psi, V
	 -1.332e+01  -F*psi/RT
	  1.635e-06  exp(-F*psi/RT)
	  6.000e+02  specific area, m²/g
	  1.800e+02  m² for   3.000e-01 g


Fhy           
	  6.740e-01  moles
	                                   Mole                     Log
	Species               Moles    Fraction    Molality    Molality

	FhyOH             5.172e-01       0.767   5.172e-01      -0.286
	FhyOH2+           8.262e-02       0.123   8.262e-02      -1.083
	FhyO-             7.417e-02       0.110   7.417e-02      -1.130
	FhyOHRa+2         2.503e-15       0.000   2.503e-15     -14.602
	FhyORa+           1.429e-19       0.000   1.429e-19     -18.845

-----------------------------Solution composition------------------------------

	Elements           Molality       Moles

	C                 1.057e-05   1.057e-05
	Cl                1.399e-02   1.399e-02
	Na                8.737e-19   8.737e-19
	Ra                5.979e-10   5.979e-10

----------------------------Description of solution----------------------------

                                       pH  =   2.300      Charge balance
                                       pe  =  18.470      Adjusted to redox equilibrium
                        Activity of water  =   1.000
                           Ionic strength  =   9.748e-03
                       Mass of water (kg)  =   1.000e+00
                 Total alkalinity (eq/kg)  =  -5.535e-03
                       Total CO2 (mol/kg)  =   1.057e-05
                         Temperature (°C)  =  25.00
                  Electrical balance (eq)  =  -8.450e-03
 Percent error, 100*(Cat-|An|)/(Cat+|An|)  = -43.34
                               Iterations  =  23
                         Gamma iterations  =   2
                      Osmotic coefficient  =   0.97159
                                  Total H  = 1.110254e+02
                                  Total O  = 5.551245e+01

----------------------------Distribution of species----------------------------

                                               Log       Log       Log    mole V
   Species          Molality    Activity  Molality  Activity     Gamma   cm³/mol

   H+              5.523e-03   5.012e-03    -2.258    -2.300    -0.042      0.00
   OH-             2.206e-12   1.995e-12   -11.656   -11.700    -0.044     (0)  
   H2O             5.551e+01   9.996e-01     1.744    -0.000     0.000     18.07
C(-4)         0.000e+00
   CH4             0.000e+00   0.000e+00  -149.626  -149.626     0.000     (0)  
C(4)          1.057e-05
   CO2             1.057e-05   1.057e-05    -4.976    -4.976     0.000     (0)  
   HCO3-           1.041e-09   9.413e-10    -8.982    -9.026    -0.044     (0)  
   CO3-2           1.316e-17   8.784e-18   -16.881   -17.056    -0.175     (0)  
   Ra(HCO3)+       1.605e-18   1.451e-18   -17.794   -17.838    -0.044     (0)  
   Ra(CO3)         1.101e-24   1.101e-24   -23.958   -23.958     0.000     (0)  
   Na(HCO3)        4.184e-28   4.184e-28   -27.378   -27.378     0.000     (0)  
   Na(CO3)-        1.293e-34   1.293e-34   -33.888   -33.888     0.000     (0)  
   CO              0.000e+00   0.000e+00   -51.596   -51.596     0.000     (0)  
Cl            1.399e-02
   Cl-             1.397e-02   1.265e-02    -1.855    -1.898    -0.043     (0)  
   HCl             1.236e-05   1.236e-05    -4.908    -4.908     0.000     (0)  
   RaCl+           4.404e-12   3.981e-12   -11.356   -11.400    -0.044     (0)  
   RaCl2           5.037e-14   5.037e-14   -13.298   -13.298     0.000     (0)  
   Cl2             8.596e-15   8.596e-15   -14.066   -14.066     0.000     (0)  
   ClO4-           1.640e-24   1.485e-24   -23.785   -23.828    -0.043     (0)  
H(0)          0.000e+00
   H2              0.000e+00   0.000e+00   -44.620   -44.620     0.000     (0)  
Na            8.737e-19
   Na+             8.737e-19   7.905e-19   -18.059   -18.102    -0.043     (0)  
   Na(HCO3)        4.184e-28   4.184e-28   -27.378   -27.378     0.000     (0)  
   Na(CO3)-        1.293e-34   1.293e-34   -33.888   -33.888     0.000     (0)  
O(0)          2.517e-03
   O2              1.259e-03   1.259e-03    -2.900    -2.900     0.000     (0)  
Ra            5.979e-10
   Ra+2            5.934e-10   3.962e-10    -9.227    -9.402    -0.175     (0)  
   RaCl+           4.404e-12   3.981e-12   -11.356   -11.400    -0.044     (0)  
   RaCl2           5.037e-14   5.037e-14   -13.298   -13.298     0.000     (0)  
   Ra(HCO3)+       1.605e-18   1.451e-18   -17.794   -17.838    -0.044     (0)  
   Ra(OH)+         2.829e-21   2.557e-21   -20.548   -20.592    -0.044     (0)  
   Ra(CO3)         1.101e-24   1.101e-24   -23.958   -23.958     0.000     (0)  
   Ra(OH)2         1.342e-33   1.342e-33   -32.872   -32.872     0.000     (0)  

------------------------------Saturation indices-------------------------------

  Phase               SI** log IAP   log K(298 K,   1 atm)

  C(cr)           -72.59   -104.74  -32.15  C
  CH4(g)         -146.77   -187.82  -41.05  CH4
  Cl2(g)          -12.84     33.14   45.98  Cl2
  CO(g)           -48.56    -63.20  -14.64  CO
  CO2(g)           -3.51    -21.66  -18.15  CO2
  H2(g)           -41.54    -41.54    0.00  H2
  H2O(g)           -1.50    -42.99  -41.49  H2O
  Halite          -21.59    -20.00    1.59  NaCl
  HCl(g)          -10.49     -4.20    6.29  HCl
  Na(cr)          -82.46    -36.57   45.89  Na
  Na2(CO3)(cr)    -54.38    -53.26    1.12  Na2(CO3)
  Na2CO3:7H2O(s)  -52.80    -53.26   -0.46  Na2CO3:7H2O
  Na2O(cr)        -99.06    -31.60   67.46  Na2O
  NaCl              0.00    -20.00  -20.00  NaCl
  Nahcolite       -26.72    -37.46  -10.74  Na(HCO3)
  Natron          -52.43    -53.26   -0.83  Na2(CO3):10H2O
  O2(g)            -0.00     -2.90   -2.90  O2
  pH_set           -2.30     -2.30    0.00  H+
  Ra(CO3)(s)      -18.16    -26.46   -8.30  Ra(CO3)
  Ra(cr)         -144.78    -46.34   98.44  Ra
  Ra(OH)2(s)      -35.79     -4.80   30.99  Ra(OH)2
  RaCl2:2H2O(s)   -12.47    -13.20   -0.73  RaCl2:2H2O
  Thermonatrite   -53.74    -53.26    0.48  Na2(CO3):H2O
  Trona           -79.34    -90.72  -11.38  Na3H(CO3)2:2H2O

**For a gas, SI = log10(fugacity). Fugacity = pressure * phi / 1 atm.
  For ideal gases, phi = 1.

------------------
End of simulation.
------------------

------------------------------------
Reading input data for simulation 8.
------------------------------------

	USE solution 1
	 USE gas_phase 1
	USE surface 1
	EQUILIBRIUM_PHASES 1
	NaCl 0 10.0
	pH_set -2.4000e+00 HCl 10.0
	END
-----------------------------------------
Beginning of batch-reaction calculations.
-----------------------------------------

Reaction step 1.

Using solution 1.	
Using surface 1.	
Using pure phase assemblage 1.	
Using gas phase 1.	

-----------------------------------Gas phase-----------------------------------

Total pressure:  1.00      atmospheres 
    Gas volume:   2.29e-01 liters
  Molar volume:   2.45e+01 liters/mole

                                                        Moles in gas
                                            ----------------------------------
Component                log P           P     Initial       Final       Delta

CO2(g)                   -3.51   3.118e-04   1.349e-05   2.922e-06  -1.057e-05
O2(g)                    -0.00   9.997e-01   1.063e-02   9.368e-03  -1.259e-03

-------------------------------Phase assemblage--------------------------------

                                                      Moles in assemblage
Phase               SI  log IAP  log K(T, P)   Initial       Final       Delta

NaCl              0.00   -20.00    -20.00    1.000e+01   1.001e+01   1.000e-02
pH_set           -2.40    -2.40      0.00
	 HCl                is reactant       1.000e+01   9.989e+00  -1.109e-02

------------------------------Surface composition------------------------------

Fhy           
	  6.737e-03  Surface charge, eq
	  3.612e+00  sigma, C/m²
	  3.367e-01  psi, V
	 -1.310e+01  -F*psi/RT
	  2.036e-06  exp(-F*psi/RT)
	  6.000e+02  specific area, m²/g
	  1.800e+02  m² for   3.000e-01 g


Fhy           
	  6.740e-01  moles
	                                   Mole                     Log
	Species               Moles    Fraction    Molality    Molality

	FhyOH             5.173e-01       0.767   5.173e-01      -0.286
	FhyOH2+           8.173e-02       0.121   8.173e-02      -1.088
	FhyO-             7.500e-02       0.111   7.500e-02      -1.125
	FhyOHRa+2         4.043e-15       0.000   4.043e-15     -14.393
	FhyORa+           2.333e-19       0.000   2.333e-19     -18.632

-----------------------------Solution composition------------------------------

	Elements           Molality       Moles

	C                 1.057e-05   1.057e-05
	Cl                1.109e-02   1.109e-02
	Na                1.080e-18   1.080e-18
	Ra                5.979e-10   5.979e-10

----------------------------Description of solution----------------------------

                                       pH  =   2.400      Charge balance
                                       pe  =  18.370      Adjusted to redox equilibrium
                        Activity of water  =   1.000
                           Ionic strength  =   7.716e-03
                       Mass of water (kg)  =   1.000e+00
                 Total alkalinity (eq/kg)  =  -4.356e-03
                       Total CO2 (mol/kg)  =   1.057e-05
                         Temperature (°C)  =  25.00
                  Electrical balance (eq)  =  -6.737e-03
 Percent error, 100*(Cat-|An|)/(Cat+|An|)  = -43.66
                               Iterations  =  28
                         Gamma iterations  =   3
                      Osmotic coefficient  =   0.97445
                                  Total H  = 1.110242e+02
                                  Total O  = 5.551245e+01

----------------------------Distribution of species----------------------------

                                               Log       Log       Log    mole V
   Species          Molality    Activity  Molality  Activity     Gamma   cm³/mol

   H+              4.348e-03   3.981e-03    -2.362    -2.400    -0.038      0.00
   OH-             2.751e-12   2.511e-12   -11.561   -11.600    -0.040     (0)  
   H2O             5.551e+01   9.997e-01     1.744    -0.000     0.000     18.07
C(-4)         0.000e+00
   CH4             0.000e+00   0.000e+00  -149.626  -149.626     0.000     (0)  
C(4)          1.057e-05
   CO2             1.056e-05   1.056e-05    -4.976    -4.976     0.000     (0)  
   HCO3-           1.298e-09   1.185e-09    -8.887    -8.926    -0.040     (0)  
   CO3-2           2.005e-17   1.392e-17   -16.698   -16.856    -0.158     (0)  
   Ra(HCO3)+       2.084e-18   1.903e-18   -17.681   -17.721    -0.040     (0)  
   Ra(CO3)         1.817e-24   1.817e-24   -23.741   -23.741     0.000     (0)  
   Na(HCO3)        6.578e-28   6.578e-28   -27.182   -27.182     0.000     (0)  
   Na(CO3)-        2.559e-34   2.559e-34   -33.592   -33.592     0.000     (0)  
   CO              0.000e+00   0.000e+00   -51.596   -51.596     0.000     (0)  
Cl            1.109e-02
   Cl-             1.108e-02   1.013e-02    -1.955    -1.994    -0.039     (0)  
   HCl             7.864e-06   7.864e-06    -5.104    -5.104     0.000     (0)  
   RaCl+           3.638e-12   3.321e-12   -11.439   -11.479    -0.040     (0)  
   RaCl2           3.365e-14   3.365e-14   -13.473   -13.473     0.000     (0)  
   Cl2             3.478e-15   3.478e-15   -14.459   -14.459     0.000     (0)  
   ClO4-           1.301e-24   1.190e-24   -23.886   -23.925    -0.039     (0)  
H(0)          0.000e+00
   H2              0.000e+00   0.000e+00   -44.620   -44.620     0.000     (0)  
Na            1.080e-18
   Na+             1.080e-18   9.870e-19   -17.966   -18.006    -0.039     (0)  
   Na(HCO3)        6.578e-28   6.578e-28   -27.182   -27.182     0.000     (0)  
   Na(CO3)-        2.559e-34   2.559e-34   -33.592   -33.592     0.000     (0)  
O(0)          2.517e-03
   O2              1.259e-03   1.259e-03    -2.900    -2.900     0.000     (0)  
Ra            5.979e-10
   Ra+2            5.942e-10   4.127e-10    -9.226    -9.384    -0.158     (0)  
   RaCl+           3.638e-12   3.321e-12   -11.439   -11.479    -0.040     (0)  
   RaCl2           3.365e-14   3.365e-14   -13.473   -13.473     0.000     (0)  
   Ra(HCO3)+       2.084e-18   1.903e-18   -17.681   -17.721    -0.040     (0)  
   Ra(OH)+         3.673e-21   3.353e-21   -20.435   -20.475    -0.040     (0)  
   Ra(CO3)         1.817e-24   1.817e-24   -23.741   -23.741     0.000     (0)  
   Ra(OH)2         2.215e-33   2.215e-33   -32.655   -32.655     0.000     (0)  

------------------------------Saturation indices-------------------------------

  Phase               SI** log IAP   log K(298 K,   1 atm)

  C(cr)           -72.59   -104.74  -32.15  C
  CH4(g)         -146.77   -187.82  -41.05  CH4
  Cl2(g)          -13.23     32.75   45.98  Cl2
  CO(g)           -48.56    -63.20  -14.64  CO
  CO2(g)           -3.51    -21.66  -18.15  CO2
  H2(g)           -41.54    -41.54    0.00  H2
  H2O(g)           -1.50    -42.99  -41.49  H2O
  Halite          -21.59    -20.00    1.59  NaCl
  HCl(g)          -10.68     -4.39    6.29  HCl
  Na(cr)          -82.27    -36.38   45.89  Na
  Na2(CO3)(cr)    -53.99    -52.87    1.12  Na2(CO3)
  Na2CO3:7H2O(s)  -52.41    -52.87   -0.46  Na2CO3:7H2O
  Na2O(cr)        -98.67    -31.21   67.46  Na2O
  NaCl              0.00    -20.00  -20.00  NaCl
  Nahcolite       -26.52    -37.26  -10.74  Na(HCO3)
  Natron          -52.04    -52.87   -0.83  Na2(CO3):10H2O
  O2(g)            -0.00     -2.90   -2.90  O2
  pH_set           -2.40     -2.40    0.00  H+
  Ra(CO3)(s)      -17.94    -26.24   -8.30  Ra(CO3)
  Ra(cr)         -144.56    -46.12   98.44  Ra
  Ra(OH)2(s)      -35.57     -4.58   30.99  Ra(OH)2
  RaCl2:2H2O(s)   -12.64    -13.37   -0.73  RaCl2:2H2O
  Thermonatrite   -53.35    -52.87    0.48  Na2(CO3):H2O
  Trona           -78.75    -90.13  -11.38  Na3H(CO3)2:2H2O

**For a gas, SI = log10(fugacity). Fugacity = pressure * phi / 1 atm.
  For ideal gases, phi = 1.

------------------
End of simulation.
------------------

------------------------------------
Reading input data for simulation 9.
------------------------------------

	USE solution 1
	 USE gas_phase 1
	USE surface 1
	EQUILIBRIUM_PHASES 1
	NaCl 0 10.0
	pH_set -2.5000e+00 HCl 10.0
	END
-----------------------------------------
Beginning of batch-reaction calculations.
-----------------------------------------

Reaction step 1.

Using solution 1.	
Using surface 1.	
Using pure phase assemblage 1.	
Using gas phase 1.	

-----------------------------------Gas phase-----------------------------------

Total pressure:  1.00      atmospheres 
    Gas volume:   2.29e-01 liters
  Molar volume:   2.45e+01 liters/mole

                                                        Moles in gas
                                            ----------------------------------
Component                log P           P     Initial       Final       Delta

CO2(g)                   -3.51   3.118e-04   1.349e-05   2.922e-06  -1.057e-05
O2(g)                    -0.00   9.997e-01   1.063e-02   9.368e-03  -1.259e-03

-------------------------------Phase assemblage--------------------------------

                                                      Moles in assemblage
Phase               SI  log IAP  log K(T, P)   Initial       Final       Delta

NaCl             -0.00   -20.00    -20.00    1.000e+01   1.001e+01   1.000e-02
pH_set           -2.50    -2.50      0.00
	 HCl                is reactant       1.000e+01   9.991e+00  -8.795e-03

------------------------------Surface composition------------------------------

Fhy           
	  5.365e-03  Surface charge, eq
	  2.876e+00  sigma, C/m²
	  3.310e-01  psi, V
	 -1.288e+01  -F*psi/RT
	  2.540e-06  exp(-F*psi/RT)
	  6.000e+02  specific area, m²/g
	  1.800e+02  m² for   3.000e-01 g


Fhy           
	  6.740e-01  moles
	                                   Mole                     Log
	Species               Moles    Fraction    Molality    Molality

	FhyOH             5.173e-01       0.768   5.173e-01      -0.286
	FhyOH2+           8.103e-02       0.120   8.103e-02      -1.091
	FhyO-             7.566e-02       0.112   7.566e-02      -1.121
	FhyOHRa+2         6.535e-15       0.000   6.535e-15     -14.185
	FhyORa+           3.805e-19       0.000   3.805e-19     -18.420

-----------------------------Solution composition------------------------------

	Elements           Molality       Moles

	C                 1.057e-05   1.057e-05
	Cl                8.795e-03   8.795e-03
	Na                1.339e-18   1.339e-18
	Ra                5.979e-10   5.979e-10

----------------------------Description of solution----------------------------

                                       pH  =   2.500      Charge balance
                                       pe  =  18.270      Adjusted to redox equilibrium
                        Activity of water  =   1.000
                           Ionic strength  =   6.107e-03
                       Mass of water (kg)  =   1.000e+00
                 Total alkalinity (eq/kg)  =  -3.430e-03
                       Total CO2 (mol/kg)  =   1.057e-05
                         Temperature (°C)  =  25.00
                  Electrical balance (eq)  =  -5.365e-03
 Percent error, 100*(Cat-|An|)/(Cat+|An|)  = -43.93
                               Iterations  =  26
                         Gamma iterations  =   3
                      Osmotic coefficient  =   0.97718
                                  Total H  = 1.110233e+02
                                  Total O  = 5.551245e+01

----------------------------Distribution of species----------------------------

                                               Log       Log       Log    mole V
   Species          Molality    Activity  Molality  Activity     Gamma   cm³/mol

   H+              3.425e-03   3.162e-03    -2.465    -2.500    -0.035      0.00
   OH-             3.432e-12   3.162e-12   -11.464   -11.500    -0.036     (0)  
   H2O             5.551e+01   9.998e-01     1.744    -0.000     0.000     18.07
C(-4)         0.000e+00
   CH4             0.000e+00   0.000e+00  -149.626  -149.626     0.000     (0)  
C(4)          1.057e-05
   CO2             1.056e-05   1.056e-05    -4.976    -4.976     0.000     (0)  
   HCO3-           1.620e-09   1.492e-09    -8.791    -8.826    -0.036     (0)  
   CO3-2           3.065e-17   2.207e-17   -16.514   -16.656    -0.143     (0)  
   Ra(HCO3)+       2.699e-18   2.486e-18   -17.569   -17.605    -0.036     (0)  
   Ra(CO3)         2.989e-24   2.989e-24   -23.525   -23.525     0.000     (0)  
   Na(HCO3)        1.035e-27   1.035e-27   -26.985   -26.985     0.000     (0)  
   Na(CO3)-        5.070e-34   5.070e-34   -33.295   -33.295     0.000     (0)  
   CO              0.000e+00   0.000e+00   -51.596   -51.596     0.000     (0)  
Cl            8.795e-03
   Cl-             8.790e-03   8.105e-03    -2.056    -2.091    -0.035     (0)  
   HCl             4.997e-06   4.997e-06    -5.301    -5.301     0.000     (0)  
   RaCl+           2.993e-12   2.757e-12   -11.524   -11.560    -0.036     (0)  
   RaCl2           2.235e-14   2.235e-14   -13.651   -13.651     0.000     (0)  
   Cl2             1.404e-15   1.404e-15   -14.853   -14.853     0.000     (0)  
   ClO4-           1.032e-24   9.516e-25   -23.986   -24.022    -0.035     (0)  
H(0)          0.000e+00
   H2              0.000e+00   0.000e+00   -44.620   -44.620     0.000     (0)  
Na            1.339e-18
   Na+             1.339e-18   1.234e-18   -17.873   -17.909    -0.035     (0)  
   Na(HCO3)        1.035e-27   1.035e-27   -26.985   -26.985     0.000     (0)  
   Na(CO3)-        5.070e-34   5.070e-34   -33.295   -33.295     0.000     (0)  
O(0)          2.517e-03
   O2              1.259e-03   1.259e-03    -2.900    -2.900     0.000     (0)  
Ra            5.979e-10
   Ra+2            5.949e-10   4.283e-10    -9.226    -9.368    -0.143     (0)  
   RaCl+           2.993e-12   2.757e-12   -11.524   -11.560    -0.036     (0)  
   RaCl2           2.235e-14   2.235e-14   -13.651   -13.651     0.000     (0)  
   Ra(HCO3)+       2.699e-18   2.486e-18   -17.569   -17.605    -0.036     (0)  
   Ra(OH)+         4.757e-21   4.381e-21   -20.323   -20.358    -0.036     (0)  
   Ra(CO3)         2.989e-24   2.989e-24   -23.525   -23.525     0.000     (0)  
   Ra(OH)2         3.643e-33   3.643e-33   -32.438   -32.438     0.000     (0)  

------------------------------Saturation indices-------------------------------

  Phase               SI** log IAP   log K(298 K,   1 atm)

  C(cr)           -72.59   -104.74  -32.15  C
  CH4(g)         -146.77   -187.82  -41.05  CH4
  Cl2(g)          -13.62     32.36   45.98  Cl2
  CO(g)           -48.56    -63.20  -14.64  CO
  CO2(g)           -3.51    -21.66  -18.15  CO2
  H2(g)           -41.54    -41.54    0.00  H2
  H2O(g)           -1.50    -42.99  -41.49  H2O
  Halite          -21.59    -20.00    1.59  NaCl
  HCl(g)          -10.88     -4.59    6.29  HCl
  Na(cr)          -82.07    -36.18   45.89  Na
  Na2(CO3)(cr)    -53.59    -52.47    1.12  Na2(CO3)
  Na2CO3:7H2O(s)  -52.01    -52.47   -0.46  Na2CO3:7H2O
  Na2O(cr)        -98.28    -30.82   67.46  Na2O
  NaCl             -0.00    -20.00  -20.00  NaCl
  Nahcolite       -26.32    -37.06  -10.74  Na(HCO3)
  Natron          -51.64    -52.47   -0.83  Na2(CO3):10H2O
  O2(g)            -0.00     -2.90   -2.90  O2
  pH_set           -2.50     -2.50    0.00  H+
  Ra(CO3)(s)      -17.72    -26.02   -8.30  Ra(CO3)
  Ra(cr)         -144.35    -45.91   98.44  Ra
  Ra(OH)2(s)      -35.36     -4.37   30.99  Ra(OH)2
  RaCl2:2H2O(s)   -12.82    -13.55   -0.73  RaCl2:2H2O
  Thermonatrite   -52.95    -52.47    0.48  Na2(CO3):H2O
  Trona           -78.16    -89.54  -11.38  Na3H(CO3)2:2H2O

**For a gas, SI = log10(fugacity). Fugacity = pressure * phi / 1 atm.
  For ideal gases, phi = 1.

------------------
End of simulation.
------------------

-------------------------------------
Reading input data for simulation 10.
-------------------------------------

	USE solution 1
	 USE gas_phase 1
	USE surface 1
	EQUILIBRIUM_PHASES 1
	NaCl 0 10.0
	pH_set -2.6000e+00 HCl 10.0
	END
-----------------------------------------
Beginning of batch-reaction calculations.
-----------------------------------------

Reaction step 1.

Using solution 1.	
Using surface 1.	
Using pure phase assemblage 1.	
Using gas phase 1.	

-----------------------------------Gas phase-----------------------------------

Total pressure:  1.00      atmospheres 
    Gas volume:   2.29e-01 liters
  Molar volume:   2.45e+01 liters/mole

                                                        Moles in gas
                                            ----------------------------------
Component                log P           P     Initial       Final       Delta

CO2(g)                   -3.51   3.118e-04   1.349e-05   2.922e-06  -1.057e-05
O2(g)                    -0.00   9.997e-01   1.063e-02   9.368e-03  -1.259e-03

-------------------------------Phase assemblage--------------------------------

                                                      Moles in assemblage
Phase               SI  log IAP  log K(T, P)   Initial       Final       Delta

NaCl              0.00   -20.00    -20.00    1.000e+01   1.001e+01   1.000e-02
pH_set           -2.60    -2.60      0.00
	 HCl                is reactant       1.000e+01   9.993e+00  -6.972e-03

------------------------------Surface composition------------------------------

Fhy           
	  4.269e-03  Surface charge, eq
	  2.289e+00  sigma, C/m²
	  3.252e-01  psi, V
	 -1.266e+01  -F*psi/RT
	  3.176e-06  exp(-F*psi/RT)
	  6.000e+02  specific area, m²/g
	  1.800e+02  m² for   3.000e-01 g


Fhy           
	  6.740e-01  moles
	                                   Mole                     Log
	Species               Moles    Fraction    Molality    Molality

	FhyOH             5.173e-01       0.768   5.173e-01      -0.286
	FhyOH2+           8.047e-02       0.119   8.047e-02      -1.094
	FhyO-             7.620e-02       0.113   7.620e-02      -1.118
	FhyOHRa+2         1.056e-14       0.000   1.056e-14     -13.976
	FhyORa+           6.194e-19       0.000   6.194e-19     -18.208

-----------------------------Solution composition------------------------------

	Elements           Molality       Moles

	C                 1.057e-05   1.057e-05
	Cl                6.972e-03   6.972e-03
	Na                1.662e-18   1.662e-18
	Ra                5.979e-10   5.979e-10

----------------------------Description of solution----------------------------

                                       pH  =   2.600      Charge balance
                                       pe  =  18.170      Adjusted to redox equilibrium
                        Activity of water  =   1.000
                           Ionic strength  =   4.834e-03
                       Mass of water (kg)  =   1.000e+00
                 Total alkalinity (eq/kg)  =  -2.703e-03
                       Total CO2 (mol/kg)  =   1.057e-05
                         Temperature (°C)  =  25.00
                  Electrical balance (eq)  =  -4.269e-03
 Percent error, 100*(Cat-|An|)/(Cat+|An|)  = -44.16
                               Iterations  =  28
                         Gamma iterations  =   3
                      Osmotic coefficient  =   0.97976
                                  Total H  = 1.110225e+02
                                  Total O  = 5.551245e+01

----------------------------Distribution of species----------------------------

                                               Log       Log       Log    mole V
   Species          Molality    Activity  Molality  Activity     Gamma   cm³/mol

   H+              2.699e-03   2.512e-03    -2.569    -2.600    -0.031      0.00
   OH-             4.286e-12   3.980e-12   -11.368   -11.400    -0.032     (0)  
   H2O             5.551e+01   9.998e-01     1.744    -0.000     0.000     18.07
C(-4)         0.000e+00
   CH4             0.000e+00   0.000e+00  -149.626  -149.626     0.000     (0)  
C(4)          1.057e-05
   CO2             1.056e-05   1.056e-05    -4.976    -4.976     0.000     (0)  
   HCO3-           2.022e-09   1.878e-09    -8.694    -8.726    -0.032     (0)  
   CO3-2           4.701e-17   3.497e-17   -16.328   -16.456    -0.128     (0)  
   Ra(HCO3)+       3.485e-18   3.237e-18   -17.458   -17.490    -0.032     (0)  
   Ra(CO3)         4.899e-24   4.899e-24   -23.310   -23.310     0.000     (0)  
   Na(HCO3)        1.631e-27   1.631e-27   -26.788   -26.788     0.000     (0)  
   Na(CO3)-        1.006e-33   1.006e-33   -32.998   -32.998     0.000     (0)  
   CO              0.000e+00   0.000e+00   -51.596   -51.596     0.000     (0)  
Cl            6.972e-03
   Cl-             6.969e-03   6.477e-03    -2.157    -2.189    -0.032     (0)  
   HCl             3.172e-06   3.172e-06    -5.499    -5.499     0.000     (0)  
   RaCl+           2.454e-12   2.279e-12   -11.610   -11.642    -0.032     (0)  
   RaCl2           1.476e-14   1.476e-14   -13.831   -13.831     0.000     (0)  
   Cl2             5.659e-16   5.659e-16   -15.247   -15.247     0.000     (0)  
   ClO4-           8.181e-25   7.605e-25   -24.087   -24.119    -0.032     (0)  
H(0)          0.000e+00
   H2              0.000e+00   0.000e+00   -44.620   -44.620     0.000     (0)  
Na            1.662e-18
   Na+             1.662e-18   1.544e-18   -17.779   -17.811    -0.032     (0)  
   Na(HCO3)        1.631e-27   1.631e-27   -26.788   -26.788     0.000     (0)  
   Na(CO3)-        1.006e-33   1.006e-33   -32.998   -32.998     0.000     (0)  
O(0)          2.517e-03
   O2              1.259e-03   1.259e-03    -2.900    -2.900     0.000     (0)  
Ra            5.979e-10
   Ra+2            5.954e-10   4.430e-10    -9.225    -9.354    -0.128     (0)  
   RaCl+           2.454e-12   2.279e-12   -11.610   -11.642    -0.032     (0)  
   RaCl2           1.476e-14   1.476e-14   -13.831   -13.831     0.000     (0)  
   Ra(HCO3)+       3.485e-18   3.237e-18   -17.458   -17.490    -0.032     (0)  
   Ra(OH)+         6.143e-21   5.705e-21   -20.212   -20.244    -0.032     (0)  
   Ra(CO3)         4.899e-24   4.899e-24   -23.310   -23.310     0.000     (0)  
   Ra(OH)2         5.973e-33   5.973e-33   -32.224   -32.224     0.000     (0)  

------------------------------Saturation indices-------------------------------

  Phase               SI** log IAP   log K(298 K,   1 atm)

  C(cr)           -72.59   -104.74  -32.15  C
  CH4(g)         -146.77   -187.82  -41.05  CH4
  Cl2(g)          -14.02     31.96   45.98  Cl2
  CO(g)           -48.56    -63.20  -14.64  CO
  CO2(g)           -3.51    -21.66  -18.15  CO2
  H2(g)           -41.54    -41.54    0.00  H2
  H2O(g)           -1.50    -42.99  -41.49  H2O
  Halite          -21.59    -20.00    1.59  NaCl
  HCl(g)          -11.08     -4.79    6.29  HCl
  Na(cr)          -81.87    -35.98   45.89  Na
  Na2(CO3)(cr)    -53.20    -52.08    1.12  Na2(CO3)
  Na2CO3:7H2O(s)  -51.62    -52.08   -0.46  Na2CO3:7H2O
  Na2O(cr)        -97.88    -30.42   67.46  Na2O
  NaCl              0.00    -20.00  -20.00  NaCl
  Nahcolite       -26.13    -36.87  -10.74  Na(HCO3)
  Natron          -51.25    -52.08   -0.83  Na2(CO3):10H2O
  O2(g)            -0.00     -2.90   -2.90  O2
  pH_set           -2.60     -2.60    0.00  H+
  Ra(CO3)(s)      -17.51    -25.81   -8.30  Ra(CO3)
  Ra(cr)         -144.13    -45.69   98.44  Ra
  Ra(OH)2(s)      -35.14     -4.15   30.99  Ra(OH)2
  RaCl2:2H2O(s)   -13.00    -13.73   -0.73  RaCl2:2H2O
  Thermonatrite   -52.56    -52.08    0.48  Na2(CO3):H2O
  Trona           -77.57    -88.95  -11.38  Na3H(CO3)2:2H2O

**For a gas, SI = log10(fugacity). Fugacity = pressure * phi / 1 atm.
  For ideal gases, phi = 1.

------------------
End of simulation.
------------------

-------------------------------------
Reading input data for simulation 11.
-------------------------------------

	USE solution 1
	 USE gas_phase 1
	USE surface 1
	EQUILIBRIUM_PHASES 1
	NaCl 0 10.0
	pH_set -2.7000e+00 HCl 10.0
	END
-----------------------------------------
Beginning of batch-reaction calculations.
-----------------------------------------

Reaction step 1.

Using solution 1.	
Using surface 1.	
Using pure phase assemblage 1.	
Using gas phase 1.	

-----------------------------------Gas phase-----------------------------------

Total pressure:  1.00      atmospheres 
    Gas volume:   2.29e-01 liters
  Molar volume:   2.45e+01 liters/mole

                                                        Moles in gas
                                            ----------------------------------
Component                log P           P     Initial       Final       Delta

CO2(g)                   -3.51   3.118e-04   1.349e-05   2.922e-06  -1.057e-05
O2(g)                    -0.00   9.997e-01   1.063e-02   9.368e-03  -1.259e-03

-------------------------------Phase assemblage--------------------------------

                                                      Moles in assemblage
Phase               SI  log IAP  log K(T, P)   Initial       Final       Delta

NaCl             -0.00   -20.00    -20.00    1.000e+01   1.001e+01   1.000e-02
pH_set           -2.70    -2.70      0.00
	 HCl                is reactant       1.000e+01   9.994e+00  -5.526e-03

------------------------------Surface composition------------------------------

Fhy           
	  3.395e-03  Surface charge, eq
	  1.820e+00  sigma, C/m²
	  3.195e-01  psi, V
	 -1.244e+01  -F*psi/RT
	  3.976e-06  exp(-F*psi/RT)
	  6.000e+02  specific area, m²/g
	  1.800e+02  m² for   3.000e-01 g


Fhy           
	  6.740e-01  moles
	                                   Mole                     Log
	Species               Moles    Fraction    Molality    Molality

	FhyOH             5.174e-01       0.768   5.174e-01      -0.286
	FhyOH2+           8.002e-02       0.119   8.002e-02      -1.097
	FhyO-             7.663e-02       0.114   7.663e-02      -1.116
	FhyOHRa+2         1.707e-14       0.000   1.707e-14     -13.768
	FhyORa+           1.007e-18       0.000   1.007e-18     -17.997

-----------------------------Solution composition------------------------------

	Elements           Molality       Moles

	C                 1.057e-05   1.057e-05
	Cl                5.526e-03   5.526e-03
	Na                2.066e-18   2.066e-18
	Ra                5.979e-10   5.979e-10

----------------------------Description of solution----------------------------

                                       pH  =   2.700      Charge balance
                                       pe  =  18.070      Adjusted to redox equilibrium
                        Activity of water  =   1.000
                           Ionic strength  =   3.827e-03
                       Mass of water (kg)  =   1.000e+00
                 Total alkalinity (eq/kg)  =  -2.131e-03
                       Total CO2 (mol/kg)  =   1.057e-05
                         Temperature (°C)  =  25.00
                  Electrical balance (eq)  =  -3.395e-03
 Percent error, 100*(Cat-|An|)/(Cat+|An|)  = -44.36
                               Iterations  =  24
                         Gamma iterations  =   3
                      Osmotic coefficient  =   0.98220
                                  Total H  = 1.110220e+02
                                  Total O  = 5.551245e+01

----------------------------Distribution of species----------------------------

                                               Log       Log       Log    mole V
   Species          Molality    Activity  Molality  Activity     Gamma   cm³/mol

   H+              2.129e-03   1.995e-03    -2.672    -2.700    -0.028      0.00
   OH-             5.356e-12   5.011e-12   -11.271   -11.300    -0.029     (0)  
   H2O             5.551e+01   9.998e-01     1.744    -0.000     0.000     18.07
C(-4)         0.000e+00
   CH4             0.000e+00   0.000e+00  -149.626  -149.626     0.000     (0)  
C(4)          1.057e-05
   CO2             1.056e-05   1.056e-05    -4.976    -4.976     0.000     (0)  
   HCO3-           2.527e-09   2.365e-09    -8.597    -8.626    -0.029     (0)  
   CO3-2           7.232e-17   5.543e-17   -16.141   -16.256    -0.115     (0)  
   Ra(HCO3)+       4.490e-18   4.202e-18   -17.348   -17.377    -0.029     (0)  
   Ra(CO3)         8.006e-24   8.006e-24   -23.097   -23.097     0.000     (0)  
   Na(HCO3)        2.571e-27   2.571e-27   -26.590   -26.590     0.000     (0)  
   Na(CO3)-        1.996e-33   1.996e-33   -32.700   -32.700     0.000     (0)  
   CO              0.000e+00   0.000e+00   -51.596   -51.596     0.000     (0)  
Cl            5.526e-03
   Cl-             5.524e-03   5.172e-03    -2.258    -2.286    -0.029     (0)  
   HCl             2.012e-06   2.012e-06    -5.696    -5.696     0.000     (0)  
   RaCl+           2.005e-12   1.876e-12   -11.698   -11.727    -0.029     (0)  
   RaCl2           9.704e-15   9.704e-15   -14.013   -14.013     0.000     (0)  
   Cl2             2.276e-16   2.276e-16   -15.643   -15.643     0.000     (0)  
   ClO4-           6.485e-25   6.072e-25   -24.188   -24.217    -0.029     (0)  
H(0)          0.000e+00
   H2              0.000e+00   0.000e+00   -44.620   -44.620     0.000     (0)  
Na            2.066e-18
   Na+             2.066e-18   1.934e-18   -17.685   -17.714    -0.029     (0)  
   Na(HCO3)        2.571e-27   2.571e-27   -26.590   -26.590     0.000     (0)  
   Na(CO3)-        1.996e-33   1.996e-33   -32.700   -32.700     0.000     (0)  
O(0)          2.517e-03
   O2              1.259e-03   1.259e-03    -2.900    -2.900     0.000     (0)  
Ra            5.979e-10
   Ra+2            5.959e-10   4.567e-10    -9.225    -9.340    -0.115     (0)  
   RaCl+           2.005e-12   1.876e-12   -11.698   -11.727    -0.029     (0)  
   RaCl2           9.704e-15   9.704e-15   -14.013   -14.013     0.000     (0)  
   Ra(HCO3)+       4.490e-18   4.202e-18   -17.348   -17.377    -0.029     (0)  
   Ra(OH)+         7.915e-21   7.406e-21   -20.102   -20.130    -0.029     (0)  
   Ra(CO3)         8.006e-24   8.006e-24   -23.097   -23.097     0.000     (0)  
   Ra(OH)2         9.762e-33   9.762e-33   -32.010   -32.010     0.000     (0)  

------------------------------Saturation indices-------------------------------

  Phase               SI** log IAP   log K(298 K,   1 atm)

  C(cr)           -72.59   -104.74  -32.15  C
  CH4(g)         -146.77   -187.82  -41.05  CH4
  Cl2(g)          -14.41     31.57   45.98  Cl2
  CO(g)           -48.56    -63.20  -14.64  CO
  CO2(g)           -3.51    -21.66  -18.15  CO2
  H2(g)           -41.54    -41.54    0.00  H2
  H2O(g)           -1.50    -42.99  -41.49  H2O
  Halite          -21.59    -20.00    1.59  NaCl
  HCl(g)          -11.28     -4.99    6.29  HCl
  Na(cr)          -81.67    -35.78   45.89  Na
  Na2(CO3)(cr)    -52.80    -51.68    1.12  Na2(CO3)
  Na2CO3:7H2O(s)  -51.22    -51.68   -0.46  Na2CO3:7H2O
  Na2O(cr)        -97.49    -30.03   67.46  Na2O
  NaCl             -0.00    -20.00  -20.00  NaCl
  Nahcolite       -25.93    -36.67  -10.74  Na(HCO3)
  Natron          -50.85    -51.68   -0.83  Na2(CO3):10H2O
  O2(g)            -0.00     -2.90   -2.90  O2
  pH_set           -2.70     -2.70    0.00  H+
  Ra(CO3)(s)      -17.30    -25.60   -8.30  Ra(CO3)
  Ra(cr)         -143.92    -45.48   98.44  Ra
  Ra(OH)2(s)      -34.93     -3.94   30.99  Ra(OH)2
  RaCl2:2H2O(s)   -13.18    -13.91   -0.73  RaCl2:2H2O
  Thermonatrite   -52.16    -51.68    0.48  Na2(CO3):H2O
  Trona           -76.97    -88.35  -11.38  Na3H(CO3)2:2H2O

**For a gas, SI = log10(fugacity). Fugacity = pressure * phi / 1 atm.
  For ideal gases, phi = 1.

------------------
End of simulation.
------------------

-------------------------------------
Reading input data for simulation 12.
-------------------------------------

	USE solution 1
	 USE gas_phase 1
	USE surface 1
	EQUILIBRIUM_PHASES 1
	NaCl 0 10.0
	pH_set -2.8000e+00 HCl 10.0
	END
-----------------------------------------
Beginning of batch-reaction calculations.
-----------------------------------------

Reaction step 1.

Using solution 1.	
Using surface 1.	
Using pure phase assemblage 1.	
Using gas phase 1.	

-----------------------------------Gas phase-----------------------------------

Total pressure:  1.00      atmospheres 
    Gas volume:   2.29e-01 liters
  Molar volume:   2.45e+01 liters/mole

                                                        Moles in gas
                                            ----------------------------------
Component                log P           P     Initial       Final       Delta

CO2(g)                   -3.51   3.117e-04   1.349e-05   2.921e-06  -1.057e-05
O2(g)                    -0.00   9.997e-01   1.063e-02   9.368e-03  -1.259e-03

-------------------------------Phase assemblage--------------------------------

                                                      Moles in assemblage
Phase               SI  log IAP  log K(T, P)   Initial       Final       Delta

NaCl             -0.00   -20.00    -20.00    1.000e+01   1.001e+01   1.000e-02
pH_set           -2.80    -2.80      0.00
	 HCl                is reactant       1.000e+01   9.996e+00  -4.380e-03

------------------------------Surface composition------------------------------

Fhy           
	  2.698e-03  Surface charge, eq
	  1.446e+00  sigma, C/m²
	  3.137e-01  psi, V
	 -1.221e+01  -F*psi/RT
	  4.983e-06  exp(-F*psi/RT)
	  6.000e+02  specific area, m²/g
	  1.800e+02  m² for   3.000e-01 g


Fhy           
	  6.740e-01  moles
	                                   Mole                     Log
	Species               Moles    Fraction    Molality    Molality

	FhyOH             5.174e-01       0.768   5.174e-01      -0.286
	FhyOH2+           7.967e-02       0.118   7.967e-02      -1.099
	FhyO-             7.697e-02       0.114   7.697e-02      -1.114
	FhyOHRa+2         2.757e-14       0.000   2.757e-14     -13.560
	FhyORa+           1.633e-18       0.000   1.633e-18     -17.787

-----------------------------Solution composition------------------------------

	Elements           Molality       Moles

	C                 1.057e-05   1.057e-05
	Cl                4.380e-03   4.380e-03
	Na                2.572e-18   2.572e-18
	Ra                5.979e-10   5.979e-10

----------------------------Description of solution----------------------------

                                       pH  =   2.800      Charge balance
                                       pe  =  17.970      Adjusted to redox equilibrium
                        Activity of water  =   1.000
                           Ionic strength  =   3.029e-03
                       Mass of water (kg)  =   1.000e+00
                 Total alkalinity (eq/kg)  =  -1.682e-03
                       Total CO2 (mol/kg)  =   1.057e-05
                         Temperature (°C)  =  25.00
                  Electrical balance (eq)  =  -2.698e-03
 Percent error, 100*(Cat-|An|)/(Cat+|An|)  = -44.53
                               Iterations  =  41
                         Gamma iterations  =   3
                      Osmotic coefficient  =   0.98447
                                  Total H  = 1.110215e+02
                                  Total O  = 5.551245e+01

----------------------------Distribution of species----------------------------

                                               Log       Log       Log    mole V
   Species          Molality    Activity  Molality  Activity     Gamma   cm³/mol

   H+              1.680e-03   1.585e-03    -2.775    -2.800    -0.025      0.00
   OH-             6.697e-12   6.309e-12   -11.174   -11.200    -0.026     (0)  
   H2O             5.551e+01   9.999e-01     1.744    -0.000     0.000     18.07
C(-4)         0.000e+00
   CH4             0.000e+00   0.000e+00  -149.626  -149.626     0.000     (0)  
C(4)          1.057e-05
   CO2             1.056e-05   1.056e-05    -4.976    -4.976     0.000     (0)  
   HCO3-           3.160e-09   2.977e-09    -8.500    -8.526    -0.026     (0)  
   CO3-2           1.116e-16   8.785e-17   -15.953   -16.056    -0.104     (0)  
   Ra(HCO3)+       5.773e-18   5.438e-18   -17.239   -17.265    -0.026     (0)  
   Ra(CO3)         1.304e-23   1.304e-23   -22.885   -22.885     0.000     (0)  
   Na(HCO3)        4.057e-27   4.057e-27   -26.392   -26.392     0.000     (0)  
   Na(CO3)-        3.964e-33   3.964e-33   -32.402   -32.402     0.000     (0)  
   CO              0.000e+00   0.000e+00   -51.596   -51.596     0.000     (0)  
Cl            4.380e-03
   Cl-             4.378e-03   4.127e-03    -2.359    -2.384    -0.026     (0)  
   HCl             1.275e-06   1.275e-06    -5.894    -5.894     0.000     (0)  
   RaCl+           1.634e-12   1.539e-12   -11.787   -11.813    -0.026     (0)  
   RaCl2           6.351e-15   6.351e-15   -14.197   -14.197     0.000     (0)  
   Cl2             9.145e-17   9.145e-17   -16.039   -16.039     0.000     (0)  
   ClO4-           5.141e-25   4.845e-25   -24.289   -24.315    -0.026     (0)  
H(0)          0.000e+00
   H2              0.000e+00   0.000e+00   -44.620   -44.620     0.000     (0)  
Na            2.572e-18
   Na+             2.572e-18   2.423e-18   -17.590   -17.616    -0.026     (0)  
   Na(HCO3)        4.057e-27   4.057e-27   -26.392   -26.392     0.000     (0)  
   Na(CO3)-        3.964e-33   3.964e-33   -32.402   -32.402     0.000     (0)  
O(0)          2.517e-03
   O2              1.259e-03   1.259e-03    -2.900    -2.900     0.000     (0)  
Ra            5.979e-10
   Ra+2            5.962e-10   4.696e-10    -9.225    -9.328    -0.104     (0)  
   RaCl+           1.634e-12   1.539e-12   -11.787   -11.813    -0.026     (0)  
   RaCl2           6.351e-15   6.351e-15   -14.197   -14.197     0.000     (0)  
   Ra(HCO3)+       5.773e-18   5.438e-18   -17.239   -17.265    -0.026     (0)  
   Ra(OH)+         1.018e-20   9.586e-21   -19.992   -20.018    -0.026     (0)  
   Ra(CO3)         1.304e-23   1.304e-23   -22.885   -22.885     0.000     (0)  
   Ra(OH)2         1.591e-32   1.591e-32   -31.798   -31.798     0.000     (0)  

------------------------------Saturation indices-------------------------------

  Phase               SI** log IAP   log K(298 K,   1 atm)

  C(cr)           -72.59   -104.74  -32.15  C
  CH4(g)         -146.77   -187.82  -41.05  CH4
  Cl2(g)          -14.81     31.17   45.98  Cl2
  CO(g)           -48.56    -63.20  -14.64  CO
  CO2(g)           -3.51    -21.66  -18.15  CO2
  H2(g)           -41.54    -41.54    0.00  H2
  H2O(g)           -1.50    -42.99  -41.49  H2O
  Halite          -21.59    -20.00    1.59  NaCl
  HCl(g)          -11.47     -5.18    6.29  HCl
  Na(cr)          -81.48    -35.59   45.89  Na
  Na2(CO3)(cr)    -52.41    -51.29    1.12  Na2(CO3)
  Na2CO3:7H2O(s)  -50.83    -51.29   -0.46  Na2CO3:7H2O
  Na2O(cr)        -97.09    -29.63   67.46  Na2O
  NaCl             -0.00    -20.00  -20.00  NaCl
  Nahcolite       -25.73    -36.47  -10.74  Na(HCO3)
  Natron          -50.46    -51.29   -0.83  Na2(CO3):10H2O
  O2(g)            -0.00     -2.90   -2.90  O2
  pH_set           -2.80     -2.80    0.00  H+
  Ra(CO3)(s)      -17.08    -25.38   -8.30  Ra(CO3)
  Ra(cr)         -143.71    -45.27   98.44  Ra
  Ra(OH)2(s)      -34.72     -3.73   30.99  Ra(OH)2
  RaCl2:2H2O(s)   -13.37    -14.10   -0.73  RaCl2:2H2O
  Thermonatrite   -51.77    -51.29    0.48  Na2(CO3):H2O
  Trona           -76.38    -87.76  -11.38  Na3H(CO3)2:2H2O

**For a gas, SI = log10(fugacity). Fugacity = pressure * phi / 1 atm.
  For ideal gases, phi = 1.

------------------
End of simulation.
------------------

-------------------------------------
Reading input data for simulation 13.
-------------------------------------

	USE solution 1
	 USE gas_phase 1
	USE surface 1
	EQUILIBRIUM_PHASES 1
	NaCl 0 10.0
	pH_set -2.9000e+00 HCl 10.0
	END
-----------------------------------------
Beginning of batch-reaction calculations.
-----------------------------------------

Reaction step 1.

Using solution 1.	
Using surface 1.	
Using pure phase assemblage 1.	
Using gas phase 1.	

-----------------------------------Gas phase-----------------------------------

Total pressure:  1.00      atmospheres 
    Gas volume:   2.29e-01 liters
  Molar volume:   2.45e+01 liters/mole

                                                        Moles in gas
                                            ----------------------------------
Component                log P           P     Initial       Final       Delta

CO2(g)                   -3.51   3.117e-04   1.349e-05   2.921e-06  -1.057e-05
O2(g)                    -0.00   9.997e-01   1.063e-02   9.368e-03  -1.259e-03

-------------------------------Phase assemblage--------------------------------

                                                      Moles in assemblage
Phase               SI  log IAP  log K(T, P)   Initial       Final       Delta

NaCl             -0.00   -20.00    -20.00    1.000e+01   1.001e+01   1.000e-02
pH_set           -2.90    -2.90      0.00
	 HCl                is reactant       1.000e+01   9.997e+00  -3.471e-03

------------------------------Surface composition------------------------------

Fhy           
	  2.144e-03  Surface charge, eq
	  1.149e+00  sigma, C/m²
	  3.079e-01  psi, V
	 -1.198e+01  -F*psi/RT
	  6.251e-06  exp(-F*psi/RT)
	  6.000e+02  specific area, m²/g
	  1.800e+02  m² for   3.000e-01 g


Fhy           
	  6.740e-01  moles
	                                   Mole                     Log
	Species               Moles    Fraction    Molality    Molality

	FhyOH             5.174e-01       0.768   5.174e-01      -0.286
	FhyOH2+           7.939e-02       0.118   7.939e-02      -1.100
	FhyO-             7.724e-02       0.115   7.724e-02      -1.112
	FhyOHRa+2         4.449e-14       0.000   4.449e-14     -13.352
	FhyORa+           2.644e-18       0.000   2.644e-18     -17.578

-----------------------------Solution composition------------------------------

[...]
C(-4)         0.000e+00
   CH4             0.000e+00   0.000e+00  -153.091  -153.091     0.000     (0)  
C(4)          1.349e-05
   HCO3-           1.033e-05   1.022e-05    -4.986    -4.991    -0.005     (0)  
   CO3-2           3.149e-06   3.016e-06    -5.502    -5.521    -0.019     (0)  
   Na(CO3)-        4.908e-09   4.856e-09    -8.309    -8.314    -0.005     (0)  
   CO2             3.626e-09   3.626e-09    -8.441    -8.441     0.000     (0)  
   Na(HCO3)        4.969e-10   4.969e-10    -9.304    -9.304     0.000     (0)  
   Ra(CO3)         1.005e-22   1.005e-22   -21.998   -21.998     0.000     (0)  
   Ra(HCO3)+       4.235e-24   4.190e-24   -23.373   -23.378    -0.005     (0)  
   CO              0.000e+00   0.000e+00   -55.061   -55.061     0.000     (0)  
Cl            1.169e-16
   Cl-             1.169e-16   1.156e-16   -15.932   -15.937    -0.005     (0)  
   HCl             3.574e-27   3.574e-27   -26.447   -26.447     0.000     (0)  
   RaCl+           9.682e-36   9.682e-36   -35.014   -35.014     0.000     (0)  
   ClO4-           1.359e-38   1.359e-38   -37.867   -37.867     0.000     (0)  
   RaCl2           0.000e+00   0.000e+00   -50.951   -50.951     0.000     (0)  
   Cl2             0.000e+00   0.000e+00   -57.144   -57.144     0.000     (0)  
H(0)          0.000e+00
   H2              0.000e+00   0.000e+00   -44.620   -44.620     0.000     (0)  
Na            8.742e-05
   Na+             8.741e-05   8.647e-05    -4.058    -4.063    -0.005     (0)  
   Na(CO3)-        4.908e-09   4.856e-09    -8.309    -8.314    -0.005     (0)  
   Na(HCO3)        4.969e-10   4.969e-10    -9.304    -9.304     0.000     (0)  
O(0)          2.518e-03
   O2              1.259e-03   1.259e-03    -2.900    -2.900     0.000     (0)  
Ra            1.102e-19
   Ra+2            1.101e-19   1.054e-19   -18.958   -18.977    -0.019     (0)  
   Ra(CO3)         1.005e-22   1.005e-22   -21.998   -21.998     0.000     (0)  
   Ra(OH)+         2.175e-23   2.152e-23   -22.662   -22.667    -0.005     (0)  
   Ra(HCO3)+       4.235e-24   4.190e-24   -23.373   -23.378    -0.005     (0)  
   Ra(OH)2         3.571e-28   3.571e-28   -27.447   -27.447     0.000     (0)  
   RaCl+           9.682e-36   9.682e-36   -35.014   -35.014     0.000     (0)  
   RaCl2           0.000e+00   0.000e+00   -50.951   -50.951     0.000     (0)  

------------------------------Saturation indices-------------------------------

  Phase               SI** log IAP   log K(298 K,   1 atm)

  C(cr)           -76.05   -108.20  -32.15  C
  CH4(g)         -150.23   -191.28  -41.05  CH4
  Cl2(g)          -55.91     -9.93   45.98  Cl2
  CO(g)           -52.02    -66.66  -14.64  CO
  CO2(g)           -6.97    -25.12  -18.15  CO2
  H2(g)           -41.54    -41.54    0.00  H2
  H2O(g)           -1.50    -42.99  -41.49  H2O
  Halite          -21.59    -20.00    1.59  NaCl
  HCl(g)          -32.03    -25.74    6.29  HCl
  Na(cr)          -60.92    -15.03   45.89  Na
  Na2(CO3)(cr)    -14.77    -13.65    1.12  Na2(CO3)
  Na2CO3:7H2O(s)  -13.19    -13.65   -0.46  Na2CO3:7H2O
  Na2O(cr)        -55.99     11.47   67.46  Na2O
  NaCl              0.00    -20.00  -20.00  NaCl
  Nahcolite        -8.64    -19.38  -10.74  Na(HCO3)
  Natron          -12.82    -13.65   -0.83  Na2(CO3):10H2O
  O2(g)            -0.00     -2.90   -2.90  O2
  pH_set           -9.80     -9.80    0.00  H+
  Ra(CO3)(s)      -16.20    -24.50   -8.30  Ra(CO3)
  Ra(cr)         -139.36    -40.92   98.44  Ra
  Ra(OH)2(s)      -30.37      0.62   30.99  Ra(OH)2
  RaCl2:2H2O(s)   -50.12    -50.85   -0.73  RaCl2:2H2O
  Thermonatrite   -14.13    -13.65    0.48  Na2(CO3):H2O
  Trona           -21.65    -33.03  -11.38  Na3H(CO3)2:2H2O

**For a gas, SI = log10(fugacity). Fugacity = pressure * phi / 1 atm.
  For ideal gases, phi = 1.

------------------
End of simulation.
------------------

-------------------------------------
Reading input data for simulation 83.
-------------------------------------

	USE solution 1
	 USE gas_phase 1
	USE surface 1
	EQUILIBRIUM_PHASES 1
	NaCl 0 10.0
	pH_set -9.9000e+00 HCl 10.0
	END
-----------------------------------------
Beginning of batch-reaction calculations.
-----------------------------------------

Reaction step 1.

Using solution 1.	
Using surface 1.	
Using pure phase assemblage 1.	
Using gas phase 1.	

-----------------------------------Gas phase-----------------------------------

Total pressure:  1.00      atmospheres 
    Gas volume:   2.29e-01 liters
  Molar volume:   2.45e+01 liters/mole

                                                        Moles in gas
                                            ----------------------------------
Component                log P           P     Initial       Final       Delta

CO2(g)                   -7.10   7.998e-08   1.349e-05   7.493e-10  -1.349e-05
O2(g)                    -0.00   1.000e+00   1.063e-02   9.368e-03  -1.259e-03

-------------------------------Phase assemblage--------------------------------

                                                      Moles in assemblage
Phase               SI  log IAP  log K(T, P)   Initial       Final       Delta

NaCl              0.00   -20.00    -20.00    1.000e+01   1.001e+01   9.894e-03
pH_set           -9.90    -9.90      0.00
	 HCl                is reactant       1.000e+01   1.000e+01   1.063e-04

------------------------------Surface composition------------------------------

Fhy           
	 -8.691e-06  Surface charge, eq
	 -4.659e-03  sigma, C/m²
	 -1.059e-01  psi, V
	  4.122e+00  -F*psi/RT
	  6.166e+01  exp(-F*psi/RT)
	  6.000e+02  specific area, m²/g
	  1.800e+02  m² for   3.000e-01 g


Fhy           
	  6.740e-01  moles
	                                   Mole                     Log
	Species               Moles    Fraction    Molality    Molality

	FhyOH             5.174e-01       0.768   5.174e-01      -0.286
	FhyO-             7.831e-02       0.116   7.831e-02      -1.106
	FhyOH2+           7.830e-02       0.116   7.830e-02      -1.106
	FhyOHRa+2         5.979e-10       0.000   5.979e-10      -9.223
	FhyORa+           3.603e-14       0.000   3.603e-14     -13.443

-----------------------------Solution composition------------------------------

	Elements           Molality       Moles

	C                 1.349e-05   1.349e-05
	Cl                9.633e-17   9.633e-17
	Na                1.063e-04   1.063e-04
	Ra                6.984e-20   6.984e-20

----------------------------Description of solution----------------------------

                                       pH  =   9.900      Charge balance
                                       pe  =  10.870      Adjusted to redox equilibrium
                        Activity of water  =   1.000
                           Ionic strength  =   1.057e-04
                       Mass of water (kg)  =   1.000e+00
                 Total alkalinity (eq/kg)  =   9.762e-05
                       Total CO2 (mol/kg)  =   1.349e-05
                         Temperature (°C)  =  25.00
                  Electrical balance (eq)  =   8.692e-06
 Percent error, 100*(Cat-|An|)/(Cat+|An|)  =   4.26
                               Iterations  =  53
                         Gamma iterations  =   3
                      Osmotic coefficient  =   0.99943
                                  Total H  = 1.110197e+02
                                  Total O  = 5.551246e+01

----------------------------Distribution of species----------------------------

                                               Log       Log       Log    mole V
   Species          Molality    Activity  Molality  Activity     Gamma   cm³/mol

   OH-             8.038e-05   7.943e-05    -4.095    -4.100    -0.005     (0)  
   H+              1.274e-10   1.259e-10    -9.895    -9.900    -0.005      0.00
   H2O             5.551e+01   1.000e+00     1.744    -0.000     0.000     18.07
C(-4)         0.000e+00
   CH4             0.000e+00   0.000e+00  -153.217  -153.217     0.000     (0)  
C(4)          1.349e-05
   HCO3-           9.730e-06   9.615e-06    -5.012    -5.017    -0.005     (0)  
   CO3-2           3.747e-06   3.572e-06    -5.426    -5.447    -0.021     (0)  
   Na(CO3)-        7.072e-09   6.988e-09    -8.150    -8.156    -0.005     (0)  
   CO2             2.710e-09   2.710e-09    -8.567    -8.567     0.000     (0)  
   Na(HCO3)        5.680e-10   5.680e-10    -9.246    -9.246     0.000     (0)  
   Ra(CO3)         7.513e-23   7.513e-23   -22.124   -22.124     0.000     (0)  
   Ra(HCO3)+       2.518e-24   2.488e-24   -23.599   -23.604    -0.005     (0)  
   CO              0.000e+00   0.000e+00   -55.187   -55.187     0.000     (0)  
Cl            9.633e-17
   Cl-             9.633e-17   9.520e-17   -16.016   -16.021    -0.005     (0)  
   HCl             2.337e-27   2.337e-27   -26.631   -26.631     0.000     (0)  
   RaCl+           5.029e-36   5.029e-36   -35.299   -35.299     0.000     (0)  
   ClO4-           1.118e-38   1.118e-38   -37.951   -37.951     0.000     (0)  
   RaCl2           0.000e+00   0.000e+00   -51.320   -51.320     0.000     (0)  
   Cl2             0.000e+00   0.000e+00   -57.513   -57.513     0.000     (0)  
H(0)          0.000e+00
   H2              0.000e+00   0.000e+00   -44.620   -44.620     0.000     (0)  
Na            1.063e-04
   Na+             1.063e-04   1.050e-04    -3.973    -3.979    -0.005     (0)  
   Na(CO3)-        7.072e-09   6.988e-09    -8.150    -8.156    -0.005     (0)  
   Na(HCO3)        5.680e-10   5.680e-10    -9.246    -9.246     0.000     (0)  
O(0)          2.518e-03
   O2              1.259e-03   1.259e-03    -2.900    -2.900     0.000     (0)  
Ra            6.984e-20
   Ra+2            6.974e-20   6.650e-20   -19.157   -19.177    -0.021     (0)  
   Ra(CO3)         7.513e-23   7.513e-23   -22.124   -22.124     0.000     (0)  
   Ra(OH)+         1.730e-23   1.709e-23   -22.762   -22.767    -0.005     (0)  
   Ra(HCO3)+       2.518e-24   2.488e-24   -23.599   -23.604    -0.005     (0)  
   Ra(OH)2         3.571e-28   3.571e-28   -27.447   -27.447     0.000     (0)  
   RaCl+           5.029e-36   5.029e-36   -35.299   -35.299     0.000     (0)  
   RaCl2           0.000e+00   0.000e+00   -51.320   -51.320     0.000     (0)  

------------------------------Saturation indices-------------------------------

  Phase               SI** log IAP   log K(298 K,   1 atm)

  C(cr)           -76.18   -108.33  -32.15  C
  CH4(g)         -150.36   -191.41  -41.05  CH4
  Cl2(g)          -56.28    -10.30   45.98  Cl2
  CO(g)           -52.15    -66.79  -14.64  CO
  CO2(g)           -7.10    -25.25  -18.15  CO2
  H2(g)           -41.54    -41.54    0.00  H2
  H2O(g)           -1.50    -42.99  -41.49  H2O
  Halite          -21.59    -20.00    1.59  NaCl
  HCl(g)          -32.21    -25.92    6.29  HCl
  Na(cr)          -60.74    -14.85   45.89  Na
  Na2(CO3)(cr)    -14.52    -13.40    1.12  Na2(CO3)
  Na2CO3:7H2O(s)  -12.94    -13.40   -0.46  Na2CO3:7H2O
  Na2O(cr)        -55.62     11.84   67.46  Na2O
  NaCl              0.00    -20.00  -20.00  NaCl
  Nahcolite        -8.59    -19.33  -10.74  Na(HCO3)
  Natron          -12.57    -13.40   -0.83  Na2(CO3):10H2O
  O2(g)            -0.00     -2.90   -2.90  O2
  pH_set           -9.90     -9.90    0.00  H+
  Ra(CO3)(s)      -16.32    -24.62   -8.30  Ra(CO3)
  Ra(cr)         -139.36    -40.92   98.44  Ra
  Ra(OH)2(s)      -30.37      0.62   30.99  Ra(OH)2
  RaCl2:2H2O(s)   -50.49    -51.22   -0.73  RaCl2:2H2O
  Thermonatrite   -13.88    -13.40    0.48  Na2(CO3):H2O
  Trona           -21.35    -32.73  -11.38  Na3H(CO3)2:2H2O

**For a gas, SI = log10(fugacity). Fugacity = pressure * phi / 1 atm.
  For ideal gases, phi = 1.

------------------
End of simulation.
------------------

-------------------------------------
Reading input data for simulation 84.
-------------------------------------

	USE solution 1
	 USE gas_phase 1
	USE surface 1
	EQUILIBRIUM_PHASES 1
	NaCl 0 10.0
	pH_set -1.0000e+01 HCl 10.0
	END
-----------------------------------------
Beginning of batch-reaction calculations.
-----------------------------------------

Reaction step 1.

Using solution 1.	
Using surface 1.	
Using pure phase assemblage 1.	
Using gas phase 1.	

-----------------------------------Gas phase-----------------------------------

Total pressure:  1.00      atmospheres 
    Gas volume:   2.29e-01 liters
  Molar volume:   2.45e+01 liters/mole

                                                        Moles in gas
                                            ----------------------------------
Component                log P           P     Initial       Final       Delta

CO2(g)                   -7.23   5.911e-08   1.349e-05   5.538e-10  -1.349e-05
O2(g)                    -0.00   1.000e+00   1.063e-02   9.368e-03  -1.259e-03

-------------------------------Phase assemblage--------------------------------

                                                      Moles in assemblage
Phase               SI  log IAP  log K(T, P)   Initial       Final       Delta

NaCl              0.00   -20.00    -20.00    1.000e+01   1.001e+01   9.870e-03
pH_set          -10.00   -10.00      0.00
	 HCl                is reactant       1.000e+01   1.000e+01   1.300e-04

------------------------------Surface composition------------------------------

Fhy           
	 -1.081e-05  Surface charge, eq
	 -5.795e-03  sigma, C/m²
	 -1.118e-01  psi, V
	  4.352e+00  -F*psi/RT
	  7.762e+01  exp(-F*psi/RT)
	  6.000e+02  specific area, m²/g
	  1.800e+02  m² for   3.000e-01 g


Fhy           
	  6.740e-01  moles
	                                   Mole                     Log
	Species               Moles    Fraction    Molality    Molality

	FhyOH             5.174e-01       0.768   5.174e-01      -0.286
	FhyO-             7.831e-02       0.116   7.831e-02      -1.106
	FhyOH2+           7.830e-02       0.116   7.830e-02      -1.106
	FhyOHRa+2         5.979e-10       0.000   5.979e-10      -9.223
	FhyORa+           3.603e-14       0.000   3.603e-14     -13.443

-----------------------------Solution composition------------------------------

	Elements           Molality       Moles

	C                 1.349e-05   1.349e-05
	Cl                7.895e-17   7.895e-17
	Na                1.300e-04   1.300e-04
	Ra                4.429e-20   4.429e-20

----------------------------Description of solution----------------------------

                                       pH  =  10.000      Charge balance
                                       pe  =  10.770      Adjusted to redox equilibrium
                        Activity of water  =   1.000
                           Ionic strength  =   1.290e-04
                       Mass of water (kg)  =   1.000e+00
                 Total alkalinity (eq/kg)  =   1.192e-04
                       Total CO2 (mol/kg)  =   1.349e-05
                         Temperature (°C)  =  25.00
                  Electrical balance (eq)  =   1.081e-05
 Percent error, 100*(Cat-|An|)/(Cat+|An|)  =   4.34
                               Iterations  =  55
                         Gamma iterations  =   3
                      Osmotic coefficient  =   0.99926
                                  Total H  = 1.110197e+02
                                  Total O  = 5.551246e+01

----------------------------Distribution of species----------------------------

                                               Log       Log       Log    mole V
   Species          Molality    Activity  Molality  Activity     Gamma   cm³/mol

   OH-             1.013e-04   1.000e-04    -3.994    -4.000    -0.006     (0)  
   H+              1.013e-10   1.000e-10    -9.994   -10.000    -0.006      0.00
   H2O             5.551e+01   1.000e+00     1.744    -0.000     0.000     18.07
C(-4)         0.000e+00
   CH4             0.000e+00   0.000e+00  -153.348  -153.348     0.000     (0)  
C(4)          1.349e-05
   HCO3-           9.065e-06   8.947e-06    -5.043    -5.048    -0.006     (0)  
   CO3-2           4.410e-06   4.185e-06    -5.356    -5.378    -0.023     (0)  
   Na(CO3)-        1.013e-08   9.999e-09    -7.994    -8.000    -0.006     (0)  
   CO2             2.003e-09   2.003e-09    -8.698    -8.698     0.000     (0)  
   Na(HCO3)        6.456e-10   6.456e-10    -9.190    -9.190     0.000     (0)  
   Ra(CO3)         5.553e-23   5.553e-23   -22.255   -22.255     0.000     (0)  
   Ra(HCO3)+       1.480e-24   1.461e-24   -23.830   -23.835    -0.006     (0)  
   CO              0.000e+00   0.000e+00   -55.318   -55.318     0.000     (0)  
Cl            7.895e-17
   Cl-             7.895e-17   7.792e-17   -16.103   -16.108    -0.006     (0)  
   HCl             1.519e-27   1.519e-27   -26.818   -26.818     0.000     (0)  
   RaCl+           2.597e-36   2.597e-36   -35.585   -35.585     0.000     (0)  
   ClO4-           9.155e-39   9.155e-39   -38.038   -38.038     0.000     (0)  
   RaCl2           0.000e+00   0.000e+00   -51.694   -51.694     0.000     (0)  
   Cl2             0.000e+00   0.000e+00   -57.887   -57.887     0.000     (0)  
H(0)          0.000e+00
   H2              0.000e+00   0.000e+00   -44.620   -44.620     0.000     (0)  
Na            1.300e-04
   Na+             1.300e-04   1.283e-04    -3.886    -3.892    -0.006     (0)  
   Na(CO3)-        1.013e-08   9.999e-09    -7.994    -8.000    -0.006     (0)  
   Na(HCO3)        6.456e-10   6.456e-10    -9.190    -9.190     0.000     (0)  
O(0)          2.518e-03
   O2              1.259e-03   1.259e-03    -2.900    -2.900     0.000     (0)  
Ra            4.429e-20
   Ra+2            4.422e-20   4.196e-20   -19.354   -19.377    -0.023     (0)  
   Ra(CO3)         5.553e-23   5.553e-23   -22.255   -22.255     0.000     (0)  
   Ra(OH)+         1.376e-23   1.358e-23   -22.861   -22.867    -0.006     (0)  
   Ra(HCO3)+       1.480e-24   1.461e-24   -23.830   -23.835    -0.006     (0)  
   Ra(OH)2         3.571e-28   3.571e-28   -27.447   -27.447     0.000     (0)  
   RaCl+           2.597e-36   2.597e-36   -35.585   -35.585     0.000     (0)  
   RaCl2           0.000e+00   0.000e+00   -51.694   -51.694     0.000     (0)  

------------------------------Saturation indices-------------------------------

  Phase               SI** log IAP   log K(298 K,   1 atm)

  C(cr)           -76.31   -108.46  -32.15  C
  CH4(g)         -150.49   -191.54  -41.05  CH4
  Cl2(g)          -56.66    -10.68   45.98  Cl2
  CO(g)           -52.28    -66.92  -14.64  CO
  CO2(g)           -7.23    -25.38  -18.15  CO2
  H2(g)           -41.54    -41.54    0.00  H2
  H2O(g)           -1.50    -42.99  -41.49  H2O
  Halite          -21.59    -20.00    1.59  NaCl
  HCl(g)          -32.40    -26.11    6.29  HCl
  Na(cr)          -60.55    -14.66   45.89  Na
  Na2(CO3)(cr)    -14.28    -13.16    1.12  Na2(CO3)
  Na2CO3:7H2O(s)  -12.70    -13.16   -0.46  Na2CO3:7H2O
  Na2O(cr)        -55.24     12.22   67.46  Na2O
  NaCl              0.00    -20.00  -20.00  NaCl
  Nahcolite        -8.53    -19.27  -10.74  Na(HCO3)
  Natron          -12.33    -13.16   -0.83  Na2(CO3):10H2O
  O2(g)            -0.00     -2.90   -2.90  O2
  pH_set          -10.00    -10.00    0.00  H+
  Ra(CO3)(s)      -16.46    -24.76   -8.30  Ra(CO3)
  Ra(cr)         -139.36    -40.92   98.44  Ra
  Ra(OH)2(s)      -30.37      0.62   30.99  Ra(OH)2
  RaCl2:2H2O(s)   -50.86    -51.59   -0.73  RaCl2:2H2O
  Thermonatrite   -13.64    -13.16    0.48  Na2(CO3):H2O
  Trona           -21.05    -32.43  -11.38  Na3H(CO3)2:2H2O

**For a gas, SI = log10(fugacity). Fugacity = pressure * phi / 1 atm.
  For ideal gases, phi = 1.

------------------
End of simulation.
------------------

-------------------------------------
Reading input data for simulation 85.
-------------------------------------

	END
------------------
End of simulation.
------------------

-------------------------------------
Reading input data for simulation 86.
-------------------------------------

------------------------------
End of Run after 1.36 Seconds.
------------------------------

