   Input file: C:\Users\Michael\Dropbox (Personal)\work\MIT Graduate Work\Research\Radium Sorption\Surface Complexation\PHREEQC Modeling\Radium Equilibrium.pqi
  Output file: C:\Users\Michael\Dropbox (Personal)\work\MIT Graduate Work\Research\Radium Sorption\Surface Complexation\PHREEQC Modeling\Radium Equilibrium.pqo
Database file: C:\Program Files (x86)\USGS\Phreeqc Interactive 3.1.4-8929\database\sit.dat

------------------
Reading data base.
------------------

	SOLUTION_MASTER_SPECIES
	SIT
WARNING: Redefinition of parameter, NO3- Na+

	SOLUTION_SPECIES
	PHASES
------------------------------------
Reading input data for simulation 1.
------------------------------------

	DATABASE C:\Program Files (x86)\USGS\Phreeqc Interactive 3.1.4-8929\database\sit.dat
	GAS_PHASE 1
	    fixed_pressure
	    pressure 1
	    volume 1
	    temperature 25
	    CO2(g)    0.00033
	    O2(g)     0.26
	END
------------------
End of simulation.
------------------

------------------------------------
Reading input data for simulation 2.
------------------------------------

	SOLUTION 1
	    units     mol/kgw
	    density   1
	    Ra        5.979e-010
	    Cl        0.01
	    Na        0.01
	    water    1 # kg
	SELECTED_OUTPUT
	    file                 RaEqTest
	    reset                false
	USER_PUNCH
	    headings 
	    start
	10 FOR i = 2 to 10 STEP 0.1
	20 a$ = EOL$ + "USE solution 1" +CHR$(59)+" USE gas_phase 1" + EOL$
	30 a$ = a$ + "EQUILIBRIUM_PHASES 1" + EOL$
	40 a$ = a$ + "NaCl 0 10.0" + EOL$
	50 a$ = a$ + "pH_set" + STR$(-i) + " HCl 10.0"+EOL$
	60 a$ = a$ + "END" + EOL$
	70 PUNCH a$
	80 NEXT i
	    end
	END
-------------------------------------------
Beginning of initial solution calculations.
-------------------------------------------

Initial solution 1.	

WARNING: USER_PUNCH: Headings count does not match number of calls to PUNCH.

-----------------------------Solution composition------------------------------

	Elements           Molality       Moles

	Cl                1.000e-02   1.000e-02
	Na                1.000e-02   1.000e-02
	Ra                5.979e-10   5.979e-10

----------------------------Description of solution----------------------------

                                       pH  =   7.000    
                                       pe  =   4.000    
                        Activity of water  =   1.000
                           Ionic strength  =   1.000e-02
                       Mass of water (kg)  =   1.000e+00
                 Total alkalinity (eq/kg)  =  -1.115e-11
                    Total carbon (mol/kg)  =   0.000e+00
                       Total CO2 (mol/kg)  =   0.000e+00
                         Temperature (°C)  =  25.00
                  Electrical balance (eq)  =   1.207e-09
 Percent error, 100*(Cat-|An|)/(Cat+|An|)  =   0.00
                               Iterations  =   6
                         Gamma iterations  =   3
                      Osmotic coefficient  =   0.96865
                                  Total H  = 1.110198e+02
                                  Total O  = 5.550991e+01

----------------------------Distribution of species----------------------------

                                               Log       Log       Log    mole V
   Species          Molality    Activity  Molality  Activity     Gamma   cm³/mol

   OH-             1.106e-07   9.997e-08    -6.956    -7.000    -0.044     (0)  
   H+              1.104e-07   1.000e-07    -6.957    -7.000    -0.043      0.00
   H2O             5.551e+01   9.997e-01     1.744    -0.000     0.000     18.07
Cl            1.000e-02
   Cl-             1.000e-02   9.035e-03    -2.000    -2.044    -0.044     (0)  
   HCl             1.762e-10   1.762e-10    -9.754    -9.754     0.000     (0)  
   RaCl+           3.142e-12   2.837e-12   -11.503   -11.547    -0.044     (0)  
   RaCl2           2.563e-14   2.563e-14   -13.591   -13.591     0.000     (0)  
   Cl2             0.000e+00   0.000e+00   -43.298   -43.298     0.000     (0)  
   ClO4-           0.000e+00   0.000e+00  -102.135  -102.135     0.000     (0)  
H(0)          1.664e-25
   H2              8.318e-26   8.318e-26   -25.080   -25.080     0.000     (0)  
Na            1.000e-02
   Na+             1.000e-02   9.035e-03    -2.000    -2.044    -0.044     (0)  
O(0)          0.000e+00
   O2              0.000e+00   0.000e+00   -41.980   -41.980     0.000     (0)  
Ra            5.979e-10
   Ra+2            5.947e-10   3.953e-10    -9.226    -9.403    -0.177     (0)  
   RaCl+           3.142e-12   2.837e-12   -11.503   -11.547    -0.044     (0)  
   RaCl2           2.563e-14   2.563e-14   -13.591   -13.591     0.000     (0)  
   Ra(OH)+         1.416e-16   1.279e-16   -15.849   -15.893    -0.044     (0)  
   Ra(OH)2         3.362e-24   3.362e-24   -23.473   -23.473     0.000     (0)  

------------------------------Saturation indices-------------------------------

  Phase               SI** log IAP   log K(298 K,   1 atm)

  Cl2(g)          -42.07      3.91   45.98  Cl2
  H2(g)           -22.00    -22.00    0.00  H2
  H2O(g)           -1.50    -42.99  -41.49  H2O
  Halite           -5.68     -4.09    1.59  NaCl
  HCl(g)          -15.33     -9.04    6.29  HCl
  Na(cr)          -51.93     -6.04   45.89  Na
  Na2O(cr)        -57.55      9.91   67.46  Na2O
  O2(g)           -39.08    -41.98   -2.90  O2
  Ra(cr)         -115.84    -17.40   98.44  Ra
  Ra(OH)2(s)      -26.39      4.60   30.99  Ra(OH)2
  RaCl2:2H2O(s)   -12.76    -13.49   -0.73  RaCl2:2H2O

**For a gas, SI = log10(fugacity). Fugacity = pressure * phi / 1 atm.
  For ideal gases, phi = 1.

------------------
End of simulation.
------------------

------------------------------------
Reading input data for simulation 3.
------------------------------------

	PHASES
	NaCl
	    NaCl = Na+ + Cl-
	    log_k     -20
	PHASES
	pH_set
	    H+=H+
	    log_k     0.0
	END
------------------
End of simulation.
------------------

------------------------------------
Reading input data for simulation 4.
------------------------------------

	SELECTED_OUTPUT
	    file                 RaEqTestOUTPUT
	    reset                true
	    state                false
	    solution             false
	    distance             false
	    time                 false
	    step                 false
	    reaction             false
	    temperature          false
	    molalities           Ra(CO3)  Ra(HCO3)+  Ra(OH)+  Ra(OH)2
	                          Ra+2  RaCl+  RaCl2
	USE solution 1
	 USE gas_phase 1
	EQUILIBRIUM_PHASES 1
	NaCl 0 10.0
	pH_set          -2 HCl 10.0
	END
-----------------------------------------
Beginning of batch-reaction calculations.
-----------------------------------------

Reaction step 1.

Using solution 1.	
Using pure phase assemblage 1.	
Using gas phase 1.	

-----------------------------------Gas phase-----------------------------------

Total pressure:  1.00      atmospheres 
    Gas volume:   2.29e-01 liters
  Molar volume:   2.45e+01 liters/mole

                                                        Moles in gas
                                            ----------------------------------
Component                log P           P     Initial       Final       Delta

CO2(g)                   -3.51   3.118e-04   1.349e-05   2.922e-06  -1.057e-05
O2(g)                    -0.00   9.997e-01   1.063e-02   9.368e-03  -1.259e-03

-------------------------------Phase assemblage--------------------------------

                                                      Moles in assemblage
Phase               SI  log IAP  log K(T, P)   Initial       Final       Delta

NaCl             -0.00   -20.00    -20.00    1.000e+01   1.001e+01   1.000e-02
pH_set           -2.00    -2.00      0.00
	 HCl                is reactant       1.000e+01   9.989e+00  -1.111e-02

-----------------------------Solution composition------------------------------

	Elements           Molality       Moles

	C                 1.057e-05   1.057e-05
	Cl                1.111e-02   1.111e-02
	Na                1.112e-18   1.112e-18
	Ra                5.979e-10   5.979e-10

----------------------------Description of solution----------------------------

                                       pH  =   2.000      Charge balance
                                       pe  =  18.770      Adjusted to redox equilibrium
                        Activity of water  =   1.000
                           Ionic strength  =   1.109e-02
                       Mass of water (kg)  =   1.000e+00
                 Total alkalinity (eq/kg)  =  -1.111e-02
                       Total CO2 (mol/kg)  =   1.057e-05
                         Temperature (°C)  =  25.00
                  Electrical balance (eq)  =   1.207e-09
 Percent error, 100*(Cat-|An|)/(Cat+|An|)  =   0.00
                               Iterations  =  26
                         Gamma iterations  =   3
                      Osmotic coefficient  =   0.97023
                                  Total H  = 1.110309e+02
                                  Total O  = 5.551245e+01

----------------------------Distribution of species----------------------------

                                               Log       Log       Log    mole V
   Species          Molality    Activity  Molality  Activity     Gamma   cm³/mol

   H+              1.109e-02   1.000e-02    -1.955    -2.000    -0.045      0.00
   OH-             1.112e-12   9.996e-13   -11.954   -12.000    -0.046     (0)  
   H2O             5.551e+01   9.996e-01     1.744    -0.000     0.000     18.07
C(-4)         0.000e+00
   CH4             0.000e+00   0.000e+00  -149.626  -149.626     0.000     (0)  
C(4)          1.057e-05
   CO2             1.057e-05   1.057e-05    -4.976    -4.976     0.000     (0)  
   HCO3-           5.249e-10   4.717e-10    -9.280    -9.326    -0.046     (0)  
   CO3-2           3.383e-18   2.207e-18   -17.471   -17.656    -0.186     (0)  
   Ra(HCO3)+       7.919e-19   7.116e-19   -18.101   -18.148    -0.046     (0)  
   Ra(CO3)         2.706e-25   2.706e-25   -24.568   -24.568     0.000     (0)  
   Na(HCO3)        2.653e-28   2.653e-28   -27.576   -27.576     0.000     (0)  
   Na(CO3)-        4.109e-35   4.109e-35   -34.386   -34.386     0.000     (0)  
   CO              0.000e+00   0.000e+00   -51.596   -51.596     0.000     (0)  
Cl            1.111e-02
   Cl-             1.109e-02   1.000e-02    -1.955    -2.000    -0.045     (0)  
   HCl             1.950e-05   1.950e-05    -4.710    -4.710     0.000     (0)  
   RaCl+           3.427e-12   3.080e-12   -11.465   -11.511    -0.046     (0)  
   RaCl2           3.080e-14   3.080e-14   -13.511   -13.511     0.000     (0)  
   Cl2             2.139e-14   2.139e-14   -13.670   -13.670     0.000     (0)  
   ClO4-           1.302e-24   1.174e-24   -23.885   -23.930    -0.045     (0)  
H(0)          0.000e+00
   H2              0.000e+00   0.000e+00   -44.620   -44.620     0.000     (0)  
Na            1.112e-18
   Na+             1.112e-18   1.000e-18   -17.954   -18.000    -0.046     (0)  
   Na(HCO3)        2.653e-28   2.653e-28   -27.576   -27.576     0.000     (0)  
   Na(CO3)-        4.109e-35   4.109e-35   -34.386   -34.386     0.000     (0)  
O(0)          2.517e-03
   O2              1.259e-03   1.259e-03    -2.900    -2.900     0.000     (0)  
Ra            5.979e-10
   Ra+2            5.944e-10   3.878e-10    -9.226    -9.411    -0.186     (0)  
   RaCl+           3.427e-12   3.080e-12   -11.465   -11.511    -0.046     (0)  
   RaCl2           3.080e-14   3.080e-14   -13.511   -13.511     0.000     (0)  
   Ra(HCO3)+       7.919e-19   7.116e-19   -18.101   -18.148    -0.046     (0)  
   Ra(OH)+         1.396e-21   1.254e-21   -20.855   -20.902    -0.046     (0)  
   Ra(CO3)         2.706e-25   2.706e-25   -24.568   -24.568     0.000     (0)  
   Ra(OH)2         3.298e-34   3.298e-34   -33.482   -33.482     0.000     (0)  

------------------------------Saturation indices-------------------------------

  Phase               SI** log IAP   log K(298 K,   1 atm)

  C(cr)           -72.59   -104.74  -32.15  C
  CH4(g)         -146.77   -187.82  -41.05  CH4
  Cl2(g)          -12.44     33.54   45.98  Cl2
  CO(g)           -48.56    -63.20  -14.64  CO
  CO2(g)           -3.51    -21.66  -18.15  CO2
  H2(g)           -41.54    -41.54    0.00  H2
  H2O(g)           -1.50    -42.99  -41.49  H2O
  Halite          -21.59    -20.00    1.59  NaCl
  HCl(g)          -10.29     -4.00    6.29  HCl
  Na(cr)          -82.66    -36.77   45.89  Na
  Na2(CO3)(cr)    -54.78    -53.66    1.12  Na2(CO3)
  Na2CO3:7H2O(s)  -53.20    -53.66   -0.46  Na2CO3:7H2O
  Na2O(cr)        -99.46    -32.00   67.46  Na2O
  NaCl             -0.00    -20.00  -20.00  NaCl
  Nahcolite       -26.92    -37.66  -10.74  Na(HCO3)
  Natron          -52.83    -53.66   -0.83  Na2(CO3):10H2O
  O2(g)            -0.00     -2.90   -2.90  O2
  pH_set           -2.00     -2.00    0.00  H+
  Ra(CO3)(s)      -18.77    -27.07   -8.30  Ra(CO3)
  Ra(cr)         -145.39    -46.95   98.44  Ra
  Ra(OH)2(s)      -36.40     -5.41   30.99  Ra(OH)2
  RaCl2:2H2O(s)   -12.68    -13.41   -0.73  RaCl2:2H2O
  Thermonatrite   -54.14    -53.66    0.48  Na2(CO3):H2O
  Trona           -79.93    -91.31  -11.38  Na3H(CO3)2:2H2O

**For a gas, SI = log10(fugacity). Fugacity = pressure * phi / 1 atm.
  For ideal gases, phi = 1.

------------------
End of simulation.
------------------

------------------------------------
Reading input data for simulation 5.
------------------------------------

	USE solution 1
	 USE gas_phase 1
	EQUILIBRIUM_PHASES 1
	NaCl 0 10.0
	pH_set -2.1000e+00 HCl 10.0
	END
-----------------------------------------
Beginning of batch-reaction calculations.
-----------------------------------------

Reaction step 1.

Using solution 1.	
Using pure phase assemblage 1.	
Using gas phase 1.	

-----------------------------------Gas phase-----------------------------------

Total pressure:  1.00      atmospheres 
    Gas volume:   2.29e-01 liters
  Molar volume:   2.45e+01 liters/mole

                                                        Moles in gas
                                            ----------------------------------
Component                log P           P     Initial       Final       Delta

CO2(g)                   -3.51   3.118e-04   1.349e-05   2.922e-06  -1.057e-05
O2(g)                    -0.00   9.997e-01   1.063e-02   9.368e-03  -1.259e-03

-------------------------------Phase assemblage--------------------------------

                                                      Moles in assemblage
Phase               SI  log IAP  log K(T, P)   Initial       Final       Delta

NaCl             -0.00   -20.00    -20.00    1.000e+01   1.001e+01   1.000e-02
pH_set           -2.10    -2.10      0.00
	 HCl                is reactant       1.000e+01   9.991e+00  -8.737e-03

-----------------------------Solution composition------------------------------

	Elements           Molality       Moles

	C                 1.057e-05   1.057e-05
	Cl                8.737e-03   8.737e-03
	Na                1.385e-18   1.385e-18
	Ra                5.979e-10   5.979e-10

----------------------------Description of solution----------------------------

                                       pH  =   2.100      Charge balance
                                       pe  =  18.670      Adjusted to redox equilibrium
                        Activity of water  =   1.000
                           Ionic strength  =   8.724e-03
                       Mass of water (kg)  =   1.000e+00
                 Total alkalinity (eq/kg)  =  -8.737e-03
                       Total CO2 (mol/kg)  =   1.057e-05
                         Temperature (°C)  =  25.00
                  Electrical balance (eq)  =   1.207e-09
 Percent error, 100*(Cat-|An|)/(Cat+|An|)  =   0.00
                               Iterations  =  26
                         Gamma iterations  =   3
                      Osmotic coefficient  =   0.97318
                                  Total H  = 1.110286e+02
                                  Total O  = 5.551245e+01

----------------------------Distribution of species----------------------------

                                               Log       Log       Log    mole V
   Species          Molality    Activity  Molality  Activity     Gamma   cm³/mol

   H+              8.724e-03   7.943e-03    -2.059    -2.100    -0.041      0.00
   OH-             1.386e-12   1.259e-12   -11.858   -11.900    -0.042     (0)  
   H2O             5.551e+01   9.997e-01     1.744    -0.000     0.000     18.07
C(-4)         0.000e+00
   CH4             0.000e+00   0.000e+00  -149.626  -149.626     0.000     (0)  
C(4)          1.057e-05
   CO2             1.057e-05   1.057e-05    -4.976    -4.976     0.000     (0)  
   HCO3-           6.539e-10   5.939e-10    -9.184    -9.226    -0.042     (0)  
   CO3-2           5.139e-18   3.497e-18   -17.289   -17.456    -0.167     (0)  
   Ra(HCO3)+       1.030e-18   9.358e-19   -17.987   -18.029    -0.042     (0)  
   Ra(CO3)         4.479e-25   4.479e-25   -24.349   -24.349     0.000     (0)  
   Na(HCO3)        4.205e-28   4.205e-28   -27.376   -27.376     0.000     (0)  
   Na(CO3)-        8.199e-35   8.199e-35   -34.086   -34.086     0.000     (0)  
   CO              0.000e+00   0.000e+00   -51.596   -51.596     0.000     (0)  
Cl            8.737e-03
   Cl-             8.724e-03   7.943e-03    -2.059    -2.100    -0.041     (0)  
   HCl             1.230e-05   1.230e-05    -4.910    -4.910     0.000     (0)  
   RaCl+           2.813e-12   2.555e-12   -11.551   -11.593    -0.042     (0)  
   RaCl2           2.030e-14   2.030e-14   -13.693   -13.693     0.000     (0)  
   Cl2             8.513e-15   8.513e-15   -14.070   -14.070     0.000     (0)  
   ClO4-           1.024e-24   9.327e-25   -23.990   -24.030    -0.041     (0)  
H(0)          0.000e+00
   H2              0.000e+00   0.000e+00   -44.620   -44.620     0.000     (0)  
Na            1.385e-18
   Na+             1.385e-18   1.259e-18   -17.858   -17.900    -0.042     (0)  
   Na(HCO3)        4.205e-28   4.205e-28   -27.376   -27.376     0.000     (0)  
   Na(CO3)-        8.199e-35   8.199e-35   -34.086   -34.086     0.000     (0)  
O(0)          2.517e-03
   O2              1.259e-03   1.259e-03    -2.900    -2.900     0.000     (0)  
Ra            5.979e-10
   Ra+2            5.951e-10   4.050e-10    -9.225    -9.393    -0.167     (0)  
   RaCl+           2.813e-12   2.555e-12   -11.551   -11.593    -0.042     (0)  
   RaCl2           2.030e-14   2.030e-14   -13.693   -13.693     0.000     (0)  
   Ra(HCO3)+       1.030e-18   9.358e-19   -17.987   -18.029    -0.042     (0)  
   Ra(OH)+         1.816e-21   1.649e-21   -20.741   -20.783    -0.042     (0)  
   Ra(CO3)         4.479e-25   4.479e-25   -24.349   -24.349     0.000     (0)  
   Ra(OH)2         5.459e-34   5.459e-34   -33.263   -33.263     0.000     (0)  

------------------------------Saturation indices-------------------------------

  Phase               SI** log IAP   log K(298 K,   1 atm)

  C(cr)           -72.59   -104.74  -32.15  C
  CH4(g)         -146.77   -187.82  -41.05  CH4
  Cl2(g)          -12.84     33.14   45.98  Cl2
  CO(g)           -48.56    -63.20  -14.64  CO
  CO2(g)           -3.51    -21.66  -18.15  CO2
  H2(g)           -41.54    -41.54    0.00  H2
  H2O(g)           -1.50    -42.99  -41.49  H2O
  Halite          -21.59    -20.00    1.59  NaCl
  HCl(g)          -10.49     -4.20    6.29  HCl
  Na(cr)          -82.46    -36.57   45.89  Na
  Na2(CO3)(cr)    -54.38    -53.26    1.12  Na2(CO3)
  Na2CO3:7H2O(s)  -52.80    -53.26   -0.46  Na2CO3:7H2O
  Na2O(cr)        -99.06    -31.60   67.46  Na2O
  NaCl             -0.00    -20.00  -20.00  NaCl
  Nahcolite       -26.72    -37.46  -10.74  Na(HCO3)
  Natron          -52.43    -53.26   -0.83  Na2(CO3):10H2O
  O2(g)            -0.00     -2.90   -2.90  O2
  pH_set           -2.10     -2.10    0.00  H+
  Ra(CO3)(s)      -18.55    -26.85   -8.30  Ra(CO3)
  Ra(cr)         -145.17    -46.73   98.44  Ra
  Ra(OH)2(s)      -36.18     -5.19   30.99  Ra(OH)2
  RaCl2:2H2O(s)   -12.86    -13.59   -0.73  RaCl2:2H2O
  Thermonatrite   -53.74    -53.26    0.48  Na2(CO3):H2O
  Trona           -79.33    -90.71  -11.38  Na3H(CO3)2:2H2O

**For a gas, SI = log10(fugacity). Fugacity = pressure * phi / 1 atm.
  For ideal gases, phi = 1.

------------------
End of simulation.
------------------

------------------------------------
Reading input data for simulation 6.
------------------------------------

	USE solution 1
	 USE gas_phase 1
	EQUILIBRIUM_PHASES 1
	NaCl 0 10.0
	pH_set -2.2000e+00 HCl 10.0
	END
-----------------------------------------
Beginning of batch-reaction calculations.
-----------------------------------------

Reaction step 1.

Using solution 1.	
Using pure phase assemblage 1.	
Using gas phase 1.	

-----------------------------------Gas phase-----------------------------------

Total pressure:  1.00      atmospheres 
    Gas volume:   2.29e-01 liters
  Molar volume:   2.45e+01 liters/mole

                                                        Moles in gas
                                            ----------------------------------
Component                log P           P     Initial       Final       Delta

CO2(g)                   -3.51   3.118e-04   1.349e-05   2.922e-06  -1.057e-05
O2(g)                    -0.00   9.997e-01   1.063e-02   9.368e-03  -1.259e-03

-------------------------------Phase assemblage--------------------------------

                                                      Moles in assemblage
Phase               SI  log IAP  log K(T, P)   Initial       Final       Delta

NaCl              0.00   -20.00    -20.00    1.000e+01   1.001e+01   1.000e-02
pH_set           -2.20    -2.20      0.00
	 HCl                is reactant       1.000e+01   9.993e+00  -6.875e-03

-----------------------------Solution composition------------------------------

	Elements           Molality       Moles

	C                 1.057e-05   1.057e-05
	Cl                6.875e-03   6.875e-03
	Na                1.727e-18   1.727e-18
	Ra                5.979e-10   5.979e-10

----------------------------Description of solution----------------------------

                                       pH  =   2.200      Charge balance
                                       pe  =  18.570      Adjusted to redox equilibrium
                        Activity of water  =   1.000
                           Ionic strength  =   6.867e-03
                       Mass of water (kg)  =   1.000e+00
                 Total alkalinity (eq/kg)  =  -6.875e-03
                       Total CO2 (mol/kg)  =   1.057e-05
                         Temperature (°C)  =  25.00
                  Electrical balance (eq)  =   1.207e-09
 Percent error, 100*(Cat-|An|)/(Cat+|An|)  =   0.00
                               Iterations  =  23
                         Gamma iterations  =   3
                      Osmotic coefficient  =   0.97600
                                  Total H  = 1.110267e+02
                                  Total O  = 5.551245e+01

----------------------------Distribution of species----------------------------

                                               Log       Log       Log    mole V
   Species          Molality    Activity  Molality  Activity     Gamma   cm³/mol

   H+              6.867e-03   6.310e-03    -2.163    -2.200    -0.037      0.00
   OH-             1.728e-12   1.584e-12   -11.763   -11.800    -0.038     (0)  
   H2O             5.551e+01   9.997e-01     1.744    -0.000     0.000     18.07
C(-4)         0.000e+00
   CH4             0.000e+00   0.000e+00  -149.626  -149.626     0.000     (0)  
C(4)          1.057e-05
   CO2             1.057e-05   1.057e-05    -4.976    -4.976     0.000     (0)  
   HCO3-           8.154e-10   7.478e-10    -9.089    -9.126    -0.038     (0)  
   CO3-2           7.837e-18   5.543e-18   -17.106   -17.256    -0.150     (0)  
   Ra(HCO3)+       1.336e-18   1.226e-18   -17.874   -17.912    -0.038     (0)  
   Ra(CO3)         7.385e-25   7.385e-25   -24.132   -24.132     0.000     (0)  
   Na(HCO3)        6.664e-28   6.664e-28   -27.176   -27.176     0.000     (0)  
   Na(CO3)-        1.636e-34   1.636e-34   -33.786   -33.786     0.000     (0)  
   CO              0.000e+00   0.000e+00   -51.596   -51.596     0.000     (0)  
Cl            6.875e-03
   Cl-             6.867e-03   6.310e-03    -2.163    -2.200    -0.037     (0)  
   HCl             7.762e-06   7.762e-06    -5.110    -5.110     0.000     (0)  
   RaCl+           2.302e-12   2.111e-12   -11.638   -11.675    -0.038     (0)  
   RaCl2           1.332e-14   1.332e-14   -13.875   -13.875     0.000     (0)  
   Cl2             3.389e-15   3.389e-15   -14.470   -14.470     0.000     (0)  
   ClO4-           8.060e-25   7.408e-25   -24.094   -24.130    -0.037     (0)  
H(0)          0.000e+00
   H2              0.000e+00   0.000e+00   -44.620   -44.620     0.000     (0)  
Na            1.727e-18
   Na+             1.727e-18   1.585e-18   -17.763   -17.800    -0.037     (0)  
   Na(HCO3)        6.664e-28   6.664e-28   -27.176   -27.176     0.000     (0)  
   Na(CO3)-        1.636e-34   1.636e-34   -33.786   -33.786     0.000     (0)  
O(0)          2.517e-03
   O2              1.259e-03   1.259e-03    -2.900    -2.900     0.000     (0)  
Ra            5.979e-10
   Ra+2            5.956e-10   4.213e-10    -9.225    -9.375    -0.150     (0)  
   RaCl+           2.302e-12   2.111e-12   -11.638   -11.675    -0.038     (0)  
   RaCl2           1.332e-14   1.332e-14   -13.875   -13.875     0.000     (0)  
   Ra(HCO3)+       1.336e-18   1.226e-18   -17.874   -17.912    -0.038     (0)  
   Ra(OH)+         2.355e-21   2.160e-21   -20.628   -20.666    -0.038     (0)  
   Ra(CO3)         7.385e-25   7.385e-25   -24.132   -24.132     0.000     (0)  
   Ra(OH)2         9.002e-34   9.002e-34   -33.046   -33.046     0.000     (0)  

------------------------------Saturation indices-------------------------------

  Phase               SI** log IAP   log K(298 K,   1 atm)

  C(cr)           -72.59   -104.74  -32.15  C
  CH4(g)         -146.77   -187.82  -41.05  CH4
  Cl2(g)          -13.24     32.74   45.98  Cl2
  CO(g)           -48.56    -63.20  -14.64  CO
  CO2(g)           -3.51    -21.66  -18.15  CO2
  H2(g)           -41.54    -41.54    0.00  H2
  H2O(g)           -1.50    -42.99  -41.49  H2O
  Halite          -21.59    -20.00    1.59  NaCl
  HCl(g)          -10.69     -4.40    6.29  HCl
  Na(cr)          -82.26    -36.37   45.89  Na
  Na2(CO3)(cr)    -53.98    -52.86    1.12  Na2(CO3)
  Na2CO3:7H2O(s)  -52.40    -52.86   -0.46  Na2CO3:7H2O
  Na2O(cr)        -98.66    -31.20   67.46  Na2O
  NaCl              0.00    -20.00  -20.00  NaCl
  Nahcolite       -26.52    -37.26  -10.74  Na(HCO3)
  Natron          -52.03    -52.86   -0.83  Na2(CO3):10H2O
  O2(g)            -0.00     -2.90   -2.90  O2
  pH_set           -2.20     -2.20    0.00  H+
  Ra(CO3)(s)      -18.33    -26.63   -8.30  Ra(CO3)
  Ra(cr)         -144.96    -46.52   98.44  Ra
  Ra(OH)2(s)      -35.97     -4.98   30.99  Ra(OH)2
  RaCl2:2H2O(s)   -13.05    -13.78   -0.73  RaCl2:2H2O
  Thermonatrite   -53.34    -52.86    0.48  Na2(CO3):H2O
  Trona           -78.73    -90.11  -11.38  Na3H(CO3)2:2H2O

**For a gas, SI = log10(fugacity). Fugacity = pressure * phi / 1 atm.
  For ideal gases, phi = 1.

------------------
End of simulation.
------------------

------------------------------------
Reading input data for simulation 7.
------------------------------------

	USE solution 1
	 USE gas_phase 1
	EQUILIBRIUM_PHASES 1
	NaCl 0 10.0
	pH_set -2.3000e+00 HCl 10.0
	END
-----------------------------------------
Beginning of batch-reaction calculations.
-----------------------------------------

Reaction step 1.

Using solution 1.	
Using pure phase assemblage 1.	
Using gas phase 1.	

-----------------------------------Gas phase-----------------------------------

Total pressure:  1.00      atmospheres 
    Gas volume:   2.29e-01 liters
  Molar volume:   2.45e+01 liters/mole

                                                        Moles in gas
                                            ----------------------------------
Component                log P           P     Initial       Final       Delta

CO2(g)                   -3.51   3.118e-04   1.349e-05   2.922e-06  -1.057e-05
O2(g)                    -0.00   9.997e-01   1.063e-02   9.368e-03  -1.259e-03

-------------------------------Phase assemblage--------------------------------

                                                      Moles in assemblage
Phase               SI  log IAP  log K(T, P)   Initial       Final       Delta

NaCl              0.00   -20.00    -20.00    1.000e+01   1.001e+01   1.000e-02
pH_set           -2.30    -2.30      0.00
	 HCl                is reactant       1.000e+01   9.995e+00  -5.414e-03

-----------------------------Solution composition------------------------------

	Elements           Molality       Moles

	C                 1.057e-05   1.057e-05
	Cl                5.414e-03   5.414e-03
	Na                2.156e-18   2.156e-18
	Ra                5.979e-10   5.979e-10

----------------------------Description of solution----------------------------

                                       pH  =   2.300      Charge balance
                                       pe  =  18.470      Adjusted to redox equilibrium
                        Activity of water  =   1.000
                           Ionic strength  =   5.409e-03
                       Mass of water (kg)  =   1.000e+00
                 Total alkalinity (eq/kg)  =  -5.414e-03
                       Total CO2 (mol/kg)  =   1.057e-05
                         Temperature (°C)  =  25.00
                  Electrical balance (eq)  =   1.207e-09
 Percent error, 100*(Cat-|An|)/(Cat+|An|)  =   0.00
                               Iterations  =  24
                         Gamma iterations  =   3
                      Osmotic coefficient  =   0.97867
                                  Total H  = 1.110252e+02
                                  Total O  = 5.551245e+01

----------------------------Distribution of species----------------------------

                                               Log       Log       Log    mole V
   Species          Molality    Activity  Molality  Activity     Gamma   cm³/mol

   H+              5.409e-03   5.012e-03    -2.267    -2.300    -0.033      0.00
   OH-             2.156e-12   1.995e-12   -11.666   -11.700    -0.034     (0)  
   H2O             5.551e+01   9.998e-01     1.744    -0.000     0.000     18.07
C(-4)         0.000e+00
   CH4             0.000e+00   0.000e+00  -149.626  -149.626     0.000     (0)  
C(4)          1.057e-05
   CO2             1.057e-05   1.057e-05    -4.976    -4.976     0.000     (0)  
   HCO3-           1.018e-09   9.414e-10    -8.992    -9.026    -0.034     (0)  
   CO3-2           1.199e-17   8.786e-18   -16.921   -17.056    -0.135     (0)  
   Ra(HCO3)+       1.729e-18   1.599e-18   -17.762   -17.796    -0.034     (0)  
   Ra(CO3)         1.213e-24   1.213e-24   -23.916   -23.916     0.000     (0)  
   Na(HCO3)        1.056e-27   1.056e-27   -26.976   -26.976     0.000     (0)  
   Na(CO3)-        3.264e-34   3.264e-34   -33.486   -33.486     0.000     (0)  
   CO              0.000e+00   0.000e+00   -51.596   -51.596     0.000     (0)  
Cl            5.414e-03
   Cl-             5.409e-03   5.012e-03    -2.267    -2.300    -0.033     (0)  
   HCl             4.898e-06   4.898e-06    -5.310    -5.310     0.000     (0)  
   RaCl+           1.879e-12   1.738e-12   -11.726   -11.760    -0.034     (0)  
   RaCl2           8.712e-15   8.712e-15   -14.060   -14.060     0.000     (0)  
   Cl2             1.349e-15   1.349e-15   -14.870   -14.870     0.000     (0)  
   ClO4-           6.350e-25   5.885e-25   -24.197   -24.230    -0.033     (0)  
H(0)          0.000e+00
   H2              0.000e+00   0.000e+00   -44.620   -44.620     0.000     (0)  
Na            2.156e-18
   Na+             2.156e-18   1.995e-18   -17.666   -17.700    -0.034     (0)  
   Na(HCO3)        1.056e-27   1.056e-27   -26.976   -26.976     0.000     (0)  
   Na(CO3)-        3.264e-34   3.264e-34   -33.486   -33.486     0.000     (0)  
O(0)          2.517e-03
   O2              1.259e-03   1.259e-03    -2.900    -2.900     0.000     (0)  
Ra            5.979e-10
   Ra+2            5.960e-10   4.366e-10    -9.225    -9.360    -0.135     (0)  
   RaCl+           1.879e-12   1.738e-12   -11.726   -11.760    -0.034     (0)  
   RaCl2           8.712e-15   8.712e-15   -14.060   -14.060     0.000     (0)  
   Ra(HCO3)+       1.729e-18   1.599e-18   -17.762   -17.796    -0.034     (0)  
   Ra(OH)+         3.047e-21   2.819e-21   -20.516   -20.550    -0.034     (0)  
   Ra(CO3)         1.213e-24   1.213e-24   -23.916   -23.916     0.000     (0)  
   Ra(OH)2         1.479e-33   1.479e-33   -32.830   -32.830     0.000     (0)  

------------------------------Saturation indices-------------------------------

  Phase               SI** log IAP   log K(298 K,   1 atm)

  C(cr)           -72.59   -104.74  -32.15  C
  CH4(g)         -146.77   -187.82  -41.05  CH4
  Cl2(g)          -13.64     32.34   45.98  Cl2
  CO(g)           -48.56    -63.20  -14.64  CO
  CO2(g)           -3.51    -21.66  -18.15  CO2
  H2(g)           -41.54    -41.54    0.00  H2
  H2O(g)           -1.50    -42.99  -41.49  H2O
  Halite          -21.59    -20.00    1.59  NaCl
  HCl(g)          -10.89     -4.60    6.29  HCl
  Na(cr)          -82.06    -36.17   45.89  Na
  Na2(CO3)(cr)    -53.58    -52.46    1.12  Na2(CO3)
  Na2CO3:7H2O(s)  -52.00    -52.46   -0.46  Na2CO3:7H2O
  Na2O(cr)        -98.26    -30.80   67.46  Na2O
  NaCl              0.00    -20.00  -20.00  NaCl
  Nahcolite       -26.32    -37.06  -10.74  Na(HCO3)
  Natron          -51.63    -52.46   -0.83  Na2(CO3):10H2O
  O2(g)            -0.00     -2.90   -2.90  O2
  pH_set           -2.30     -2.30    0.00  H+
  Ra(CO3)(s)      -18.12    -26.42   -8.30  Ra(CO3)
  Ra(cr)         -144.74    -46.30   98.44  Ra
  Ra(OH)2(s)      -35.75     -4.76   30.99  Ra(OH)2
  RaCl2:2H2O(s)   -13.23    -13.96   -0.73  RaCl2:2H2O
  Thermonatrite   -52.94    -52.46    0.48  Na2(CO3):H2O
  Trona           -78.13    -89.51  -11.38  Na3H(CO3)2:2H2O

**For a gas, SI = log10(fugacity). Fugacity = pressure * phi / 1 atm.
  For ideal gases, phi = 1.

------------------
End of simulation.
------------------

------------------------------------
Reading input data for simulation 8.
------------------------------------

	USE solution 1
	 USE gas_phase 1
	EQUILIBRIUM_PHASES 1
	NaCl 0 10.0
	pH_set -2.4000e+00 HCl 10.0
	END
-----------------------------------------
Beginning of batch-reaction calculations.
-----------------------------------------

Reaction step 1.

Using solution 1.	
Using pure phase assemblage 1.	
Using gas phase 1.	

-----------------------------------Gas phase-----------------------------------

Total pressure:  1.00      atmospheres 
    Gas volume:   2.29e-01 liters
  Molar volume:   2.45e+01 liters/mole

                                                        Moles in gas
                                            ----------------------------------
Component                log P           P     Initial       Final       Delta

CO2(g)                   -3.51   3.118e-04   1.349e-05   2.922e-06  -1.057e-05
O2(g)                    -0.00   9.997e-01   1.063e-02   9.368e-03  -1.259e-03

-------------------------------Phase assemblage--------------------------------

                                                      Moles in assemblage
Phase               SI  log IAP  log K(T, P)   Initial       Final       Delta

NaCl              0.00   -20.00    -20.00    1.000e+01   1.001e+01   1.000e-02
pH_set           -2.40    -2.40      0.00
	 HCl                is reactant       1.000e+01   9.996e+00  -4.267e-03

-----------------------------Solution composition------------------------------

	Elements           Molality       Moles

	C                 1.057e-05   1.057e-05
	Cl                4.267e-03   4.267e-03
	Na                2.693e-18   2.693e-18
	Ra                5.979e-10   5.979e-10

----------------------------Description of solution----------------------------

                                       pH  =   2.400      Charge balance
                                       pe  =  18.370      Adjusted to redox equilibrium
                        Activity of water  =   1.000
                           Ionic strength  =   4.264e-03
                       Mass of water (kg)  =   1.000e+00
                 Total alkalinity (eq/kg)  =  -4.267e-03
                       Total CO2 (mol/kg)  =   1.057e-05
                         Temperature (°C)  =  25.00
                  Electrical balance (eq)  =   1.207e-09
 Percent error, 100*(Cat-|An|)/(Cat+|An|)  =   0.00
                               Iterations  =  24
                         Gamma iterations  =   3
                      Osmotic coefficient  =   0.98119
                                  Total H  = 1.110241e+02
                                  Total O  = 5.551245e+01

----------------------------Distribution of species----------------------------

                                               Log       Log       Log    mole V
   Species          Molality    Activity  Molality  Activity     Gamma   cm³/mol

   H+              4.264e-03   3.981e-03    -2.370    -2.400    -0.030      0.00
   OH-             2.693e-12   2.511e-12   -11.570   -11.600    -0.030     (0)  
   H2O             5.551e+01   9.998e-01     1.744    -0.000     0.000     18.07
C(-4)         0.000e+00
   CH4             0.000e+00   0.000e+00  -149.626  -149.626     0.000     (0)  
C(4)          1.057e-05
   CO2             1.056e-05   1.056e-05    -4.976    -4.976     0.000     (0)  
   HCO3-           1.271e-09   1.185e-09    -8.896    -8.926    -0.030     (0)  
   CO3-2           1.841e-17   1.392e-17   -16.735   -16.856    -0.121     (0)  
   Ra(HCO3)+       2.230e-18   2.080e-18   -17.652   -17.682    -0.030     (0)  
   Ra(CO3)         1.986e-24   1.986e-24   -23.702   -23.702     0.000     (0)  
   Na(HCO3)        1.674e-27   1.674e-27   -26.776   -26.776     0.000     (0)  
   Na(CO3)-        6.513e-34   6.513e-34   -33.186   -33.186     0.000     (0)  
   CO              0.000e+00   0.000e+00   -51.596   -51.596     0.000     (0)  
Cl            4.267e-03
   Cl-             4.264e-03   3.981e-03    -2.370    -2.400    -0.030     (0)  
   HCl             3.090e-06   3.090e-06    -5.510    -5.510     0.000     (0)  
   RaCl+           1.529e-12   1.426e-12   -11.815   -11.846    -0.030     (0)  
   RaCl2           5.678e-15   5.678e-15   -14.246   -14.246     0.000     (0)  
   Cl2             5.370e-16   5.370e-16   -15.270   -15.270     0.000     (0)  
   ClO4-           5.006e-25   4.674e-25   -24.301   -24.330    -0.030     (0)  
H(0)          0.000e+00
   H2              0.000e+00   0.000e+00   -44.620   -44.620     0.000     (0)  
Na            2.693e-18
   Na+             2.693e-18   2.512e-18   -17.570   -17.600    -0.030     (0)  
   Na(HCO3)        1.674e-27   1.674e-27   -26.776   -26.776     0.000     (0)  
   Na(CO3)-        6.513e-34   6.513e-34   -33.186   -33.186     0.000     (0)  
O(0)          2.517e-03
   O2              1.259e-03   1.259e-03    -2.900    -2.900     0.000     (0)  
Ra            5.979e-10
   Ra+2            5.964e-10   4.510e-10    -9.224    -9.346    -0.121     (0)  
   RaCl+           1.529e-12   1.426e-12   -11.815   -11.846    -0.030     (0)  
   RaCl2           5.678e-15   5.678e-15   -14.246   -14.246     0.000     (0)  
   Ra(HCO3)+       2.230e-18   2.080e-18   -17.652   -17.682    -0.030     (0)  
   Ra(OH)+         3.930e-21   3.665e-21   -20.406   -20.436    -0.030     (0)  
   Ra(CO3)         1.986e-24   1.986e-24   -23.702   -23.702     0.000     (0)  
   Ra(OH)2         2.421e-33   2.421e-33   -32.616   -32.616     0.000     (0)  

------------------------------Saturation indices-------------------------------

  Phase               SI** log IAP   log K(298 K,   1 atm)

  C(cr)           -72.59   -104.74  -32.15  C
  CH4(g)         -146.77   -187.82  -41.05  CH4
  Cl2(g)          -14.04     31.94   45.98  Cl2
  CO(g)           -48.56    -63.20  -14.64  CO
  CO2(g)           -3.51    -21.66  -18.15  CO2
  H2(g)           -41.54    -41.54    0.00  H2
  H2O(g)           -1.50    -42.99  -41.49  H2O
  Halite          -21.59    -20.00    1.59  NaCl
  HCl(g)          -11.09     -4.80    6.29  HCl
  Na(cr)          -81.86    -35.97   45.89  Na
  Na2(CO3)(cr)    -53.18    -52.06    1.12  Na2(CO3)
  Na2CO3:7H2O(s)  -51.60    -52.06   -0.46  Na2CO3:7H2O
  Na2O(cr)        -97.86    -30.40   67.46  Na2O
  NaCl              0.00    -20.00  -20.00  NaCl
  Nahcolite       -26.12    -36.86  -10.74  Na(HCO3)
  Natron          -51.23    -52.06   -0.83  Na2(CO3):10H2O
  O2(g)            -0.00     -2.90   -2.90  O2
  pH_set           -2.40     -2.40    0.00  H+
  Ra(CO3)(s)      -17.90    -26.20   -8.30  Ra(CO3)
  Ra(cr)         -144.53    -46.09   98.44  Ra
  Ra(OH)2(s)      -35.54     -4.55   30.99  Ra(OH)2
  RaCl2:2H2O(s)   -13.42    -14.15   -0.73  RaCl2:2H2O
  Thermonatrite   -52.54    -52.06    0.48  Na2(CO3):H2O
  Trona           -77.53    -88.91  -11.38  Na3H(CO3)2:2H2O

**For a gas, SI = log10(fugacity). Fugacity = pressure * phi / 1 atm.
  For ideal gases, phi = 1.

------------------
End of simulation.
------------------

------------------------------------
Reading input data for simulation 9.
------------------------------------

	USE solution 1
	 USE gas_phase 1
	EQUILIBRIUM_PHASES 1
	NaCl 0 10.0
	pH_set -2.5000e+00 HCl 10.0
	END
-----------------------------------------
Beginning of batch-reaction calculations.
-----------------------------------------

Reaction step 1.

Using solution 1.	
Using pure phase assemblage 1.	
Using gas phase 1.	

-----------------------------------Gas phase-----------------------------------

Total pressure:  1.00      atmospheres 
    Gas volume:   2.29e-01 liters
  Molar volume:   2.45e+01 liters/mole

                                                        Moles in gas
                                            ----------------------------------
Component                log P           P     Initial       Final       Delta

CO2(g)                   -3.51   3.118e-04   1.349e-05   2.922e-06  -1.057e-05
O2(g)                    -0.00   9.997e-01   1.063e-02   9.368e-03  -1.259e-03

-------------------------------Phase assemblage--------------------------------

                                                      Moles in assemblage
Phase               SI  log IAP  log K(T, P)   Initial       Final       Delta

NaCl              0.00   -20.00    -20.00    1.000e+01   1.001e+01   1.000e-02
pH_set           -2.50    -2.50      0.00
	 HCl                is reactant       1.000e+01   9.997e+00  -3.366e-03

-----------------------------Solution composition------------------------------

	Elements           Molality       Moles

	C                 1.057e-05   1.057e-05
	Cl                3.366e-03   3.366e-03
	Na                3.366e-18   3.366e-18
	Ra                5.979e-10   5.979e-10

----------------------------Description of solution----------------------------

                                       pH  =   2.500      Charge balance
                                       pe  =  18.270      Adjusted to redox equilibrium
                        Activity of water  =   1.000
                           Ionic strength  =   3.364e-03
                       Mass of water (kg)  =   1.000e+00
                 Total alkalinity (eq/kg)  =  -3.366e-03
                       Total CO2 (mol/kg)  =   1.057e-05
                         Temperature (°C)  =  25.00
                  Electrical balance (eq)  =   1.207e-09
 Percent error, 100*(Cat-|An|)/(Cat+|An|)  =   0.00
                               Iterations  =  22
                         Gamma iterations  =   3
                      Osmotic coefficient  =   0.98355
                                  Total H  = 1.110232e+02
                                  Total O  = 5.551245e+01

----------------------------Distribution of species----------------------------

                                               Log       Log       Log    mole V
   Species          Molality    Activity  Molality  Activity     Gamma   cm³/mol

   H+              3.364e-03   3.162e-03    -2.473    -2.500    -0.027      0.00
   OH-             3.366e-12   3.162e-12   -11.473   -11.500    -0.027     (0)  
   H2O             5.551e+01   9.999e-01     1.744    -0.000     0.000     18.07
C(-4)         0.000e+00
   CH4             0.000e+00   0.000e+00  -149.626  -149.626     0.000     (0)  
C(4)          1.057e-05
   CO2             1.056e-05   1.056e-05    -4.976    -4.976     0.000     (0)  
   HCO3-           1.589e-09   1.492e-09    -8.799    -8.826    -0.027     (0)  
   CO3-2           2.836e-17   2.207e-17   -16.547   -16.656    -0.109     (0)  
   Ra(HCO3)+       2.870e-18   2.696e-18   -17.542   -17.569    -0.027     (0)  
   Ra(CO3)         3.241e-24   3.241e-24   -23.489   -23.489     0.000     (0)  
   Na(HCO3)        2.653e-27   2.653e-27   -26.576   -26.576     0.000     (0)  
   Na(CO3)-        1.300e-33   1.300e-33   -32.886   -32.886     0.000     (0)  
   CO              0.000e+00   0.000e+00   -51.596   -51.596     0.000     (0)  
Cl            3.366e-03
   Cl-             3.364e-03   3.162e-03    -2.473    -2.500    -0.027     (0)  
   HCl             1.950e-06   1.950e-06    -5.710    -5.710     0.000     (0)  
   RaCl+           1.242e-12   1.166e-12   -11.906   -11.933    -0.027     (0)  
   RaCl2           3.689e-15   3.689e-15   -14.433   -14.433     0.000     (0)  
   Cl2             2.138e-16   2.138e-16   -15.670   -15.670     0.000     (0)  
   ClO4-           3.949e-25   3.713e-25   -24.404   -24.430    -0.027     (0)  
H(0)          0.000e+00
   H2              0.000e+00   0.000e+00   -44.620   -44.620     0.000     (0)  
Na            3.366e-18
   Na+             3.366e-18   3.162e-18   -17.473   -17.500    -0.027     (0)  
   Na(HCO3)        2.653e-27   2.653e-27   -26.576   -26.576     0.000     (0)  
   Na(CO3)-        1.300e-33   1.300e-33   -32.886   -32.886     0.000     (0)  
O(0)          2.517e-03
   O2              1.259e-03   1.259e-03    -2.900    -2.900     0.000     (0)  
Ra            5.979e-10
   Ra+2            5.967e-10   4.644e-10    -9.224    -9.333    -0.109     (0)  
   RaCl+           1.242e-12   1.166e-12   -11.906   -11.933    -0.027     (0)  
   RaCl2           3.689e-15   3.689e-15   -14.433   -14.433     0.000     (0)  
   Ra(HCO3)+       2.870e-18   2.696e-18   -17.542   -17.569    -0.027     (0)  
   Ra(OH)+         5.059e-21   4.751e-21   -20.296   -20.323    -0.027     (0)  
   Ra(CO3)         3.241e-24   3.241e-24   -23.489   -23.489     0.000     (0)  
   Ra(OH)2         3.951e-33   3.951e-33   -32.403   -32.403     0.000     (0)  

------------------------------Saturation indices-------------------------------

  Phase               SI** log IAP   log K(298 K,   1 atm)

  C(cr)           -72.59   -104.74  -32.15  C
  CH4(g)         -146.77   -187.82  -41.05  CH4
  Cl2(g)          -14.44     31.54   45.98  Cl2
  CO(g)           -48.56    -63.20  -14.64  CO
  CO2(g)           -3.51    -21.66  -18.15  CO2
  H2(g)           -41.54    -41.54    0.00  H2
  H2O(g)           -1.50    -42.99  -41.49  H2O
  Halite          -21.59    -20.00    1.59  NaCl
  HCl(g)          -11.29     -5.00    6.29  HCl
  Na(cr)          -81.66    -35.77   45.89  Na
  Na2(CO3)(cr)    -52.78    -51.66    1.12  Na2(CO3)
  Na2CO3:7H2O(s)  -51.20    -51.66   -0.46  Na2CO3:7H2O
  Na2O(cr)        -97.46    -30.00   67.46  Na2O
  NaCl              0.00    -20.00  -20.00  NaCl
  Nahcolite       -25.92    -36.66  -10.74  Na(HCO3)
  Natron          -50.83    -51.66   -0.83  Na2(CO3):10H2O
  O2(g)            -0.00     -2.90   -2.90  O2
  pH_set           -2.50     -2.50    0.00  H+
  Ra(CO3)(s)      -17.69    -25.99   -8.30  Ra(CO3)
  Ra(cr)         -144.31    -45.87   98.44  Ra
  Ra(OH)2(s)      -35.32     -4.33   30.99  Ra(OH)2
  RaCl2:2H2O(s)   -13.60    -14.33   -0.73  RaCl2:2H2O
  Thermonatrite   -52.14    -51.66    0.48  Na2(CO3):H2O
  Trona           -76.93    -88.31  -11.38  Na3H(CO3)2:2H2O

**For a gas, SI = log10(fugacity). Fugacity = pressure * phi / 1 atm.
  For ideal gases, phi = 1.

------------------
End of simulation.
------------------

-------------------------------------
Reading input data for simulation 10.
-------------------------------------

	USE solution 1
	 USE gas_phase 1
	EQUILIBRIUM_PHASES 1
	NaCl 0 10.0
	pH_set -2.6000e+00 HCl 10.0
	END
-----------------------------------------
Beginning of batch-reaction calculations.
-----------------------------------------

Reaction step 1.

Using solution 1.	
Using pure phase assemblage 1.	
Using gas phase 1.	

-----------------------------------Gas phase-----------------------------------

Total pressure:  1.00      atmospheres 
    Gas volume:   2.29e-01 liters
  Molar volume:   2.45e+01 liters/mole

                                                        Moles in gas
                                            ----------------------------------
Component                log P           P     Initial       Final       Delta

CO2(g)                   -3.51   3.118e-04   1.349e-05   2.922e-06  -1.057e-05
O2(g)                    -0.00   9.997e-01   1.063e-02   9.368e-03  -1.259e-03

-------------------------------Phase assemblage--------------------------------

                                                      Moles in assemblage
Phase               SI  log IAP  log K(T, P)   Initial       Final       Delta

NaCl              0.00   -20.00    -20.00    1.000e+01   1.001e+01   1.000e-02
pH_set           -2.60    -2.60      0.00
	 HCl                is reactant       1.000e+01   9.997e+00  -2.656e-03

-----------------------------Solution composition------------------------------

	Elements           Molality       Moles

	C                 1.057e-05   1.057e-05
	Cl                2.656e-03   2.656e-03
	Na                4.210e-18   4.210e-18
	Ra                5.979e-10   5.979e-10

----------------------------Description of solution----------------------------

                                       pH  =   2.600      Charge balance
                                       pe  =  18.170      Adjusted to redox equilibrium
                        Activity of water  =   1.000
                           Ionic strength  =   2.655e-03
                       Mass of water (kg)  =   1.000e+00
                 Total alkalinity (eq/kg)  =  -2.656e-03
                       Total CO2 (mol/kg)  =   1.057e-05
                         Temperature (°C)  =  25.00
                  Electrical balance (eq)  =   1.207e-09
 Percent error, 100*(Cat-|An|)/(Cat+|An|)  =   0.00
                               Iterations  =  23
                         Gamma iterations  =   3
                      Osmotic coefficient  =   0.98574
                                  Total H  = 1.110225e+02
                                  Total O  = 5.551245e+01

----------------------------Distribution of species----------------------------

                                               Log       Log       Log    mole V
   Species          Molality    Activity  Molality  Activity     Gamma   cm³/mol

   H+              2.655e-03   2.512e-03    -2.576    -2.600    -0.024      0.00
   OH-             4.211e-12   3.981e-12   -11.376   -11.400    -0.024     (0)  
   H2O             5.551e+01   9.999e-01     1.744    -0.000     0.000     18.07
C(-4)         0.000e+00
   CH4             0.000e+00   0.000e+00  -149.626  -149.626     0.000     (0)  
C(4)          1.057e-05
   CO2             1.056e-05   1.056e-05    -4.976    -4.976     0.000     (0)  
   HCO3-           1.987e-09   1.878e-09    -8.702    -8.726    -0.024     (0)  
   CO3-2           4.379e-17   3.498e-17   -16.359   -16.456    -0.098     (0)  
   Ra(HCO3)+       3.686e-18   3.484e-18   -17.433   -17.458    -0.024     (0)  
   Ra(CO3)         5.274e-24   5.274e-24   -23.278   -23.278     0.000     (0)  
   Na(HCO3)        4.205e-27   4.205e-27   -26.376   -26.376     0.000     (0)  
   Na(CO3)-        2.593e-33   2.593e-33   -32.586   -32.586     0.000     (0)  
   CO              0.000e+00   0.000e+00   -51.596   -51.596     0.000     (0)  
Cl            2.656e-03
   Cl-             2.655e-03   2.512e-03    -2.576    -2.600    -0.024     (0)  
   HCl             1.230e-06   1.230e-06    -5.910    -5.910     0.000     (0)  
   RaCl+           1.006e-12   9.513e-13   -11.997   -12.022    -0.024     (0)  
   RaCl2           2.390e-15   2.390e-15   -14.622   -14.622     0.000     (0)  
   Cl2             8.511e-17   8.511e-17   -16.070   -16.070     0.000     (0)  
   ClO4-           3.117e-25   2.949e-25   -24.506   -24.530    -0.024     (0)  
H(0)          0.000e+00
   H2              0.000e+00   0.000e+00   -44.620   -44.620     0.000     (0)  
Na            4.210e-18
   Na+             4.210e-18   3.981e-18   -17.376   -17.400    -0.024     (0)  
   Na(HCO3)        4.205e-27   4.205e-27   -26.376   -26.376     0.000     (0)  
   Na(CO3)-        2.593e-33   2.593e-33   -32.586   -32.586     0.000     (0)  
O(0)          2.517e-03
   O2              1.259e-03   1.259e-03    -2.900    -2.900     0.000     (0)  
Ra            5.979e-10
   Ra+2            5.969e-10   4.768e-10    -9.224    -9.322    -0.098     (0)  
   RaCl+           1.006e-12   9.513e-13   -11.997   -12.022    -0.024     (0)  
   RaCl2           2.390e-15   2.390e-15   -14.622   -14.622     0.000     (0)  
   Ra(HCO3)+       3.686e-18   3.484e-18   -17.433   -17.458    -0.024     (0)  
   Ra(OH)+         6.496e-21   6.141e-21   -20.187   -20.212    -0.024     (0)  
   Ra(CO3)         5.274e-24   5.274e-24   -23.278   -23.278     0.000     (0)  
   Ra(OH)2         6.430e-33   6.430e-33   -32.192   -32.192     0.000     (0)  

------------------------------Saturation indices-------------------------------

  Phase               SI** log IAP   log K(298 K,   1 atm)

  C(cr)           -72.59   -104.74  -32.15  C
  CH4(g)         -146.77   -187.82  -41.05  CH4
  Cl2(g)          -14.84     31.14   45.98  Cl2
  CO(g)           -48.56    -63.20  -14.64  CO
  CO2(g)           -3.51    -21.66  -18.15  CO2
  H2(g)           -41.54    -41.54    0.00  H2
  H2O(g)           -1.50    -42.99  -41.49  H2O
  Halite          -21.59    -20.00    1.59  NaCl
  HCl(g)          -11.49     -5.20    6.29  HCl
  Na(cr)          -81.46    -35.57   45.89  Na
  Na2(CO3)(cr)    -52.38    -51.26    1.12  Na2(CO3)
  Na2CO3:7H2O(s)  -50.80    -51.26   -0.46  Na2CO3:7H2O
  Na2O(cr)        -97.06    -29.60   67.46  Na2O
  NaCl              0.00    -20.00  -20.00  NaCl
  Nahcolite       -25.72    -36.46  -10.74  Na(HCO3)
  Natron          -50.43    -51.26   -0.83  Na2(CO3):10H2O
  O2(g)            -0.00     -2.90   -2.90  O2
  pH_set           -2.60     -2.60    0.00  H+
  Ra(CO3)(s)      -17.48    -25.78   -8.30  Ra(CO3)
  Ra(cr)         -144.10    -45.66   98.44  Ra
  Ra(OH)2(s)      -35.11     -4.12   30.99  Ra(OH)2
  RaCl2:2H2O(s)   -13.79    -14.52   -0.73  RaCl2:2H2O
  Thermonatrite   -51.74    -51.26    0.48  Na2(CO3):H2O
  Trona           -76.33    -87.71  -11.38  Na3H(CO3)2:2H2O

**For a gas, SI = log10(fugacity). Fugacity = pressure * phi / 1 atm.
  For ideal gases, phi = 1.

------------------
End of simulation.
------------------

-------------------------------------
Reading input data for simulation 11.
-------------------------------------

	USE solution 1
	 USE gas_phase 1
	EQUILIBRIUM_PHASES 1
	NaCl 0 10.0
	pH_set -2.7000e+00 HCl 10.0
	END
-----------------------------------------
Beginning of batch-reaction calculations.
-----------------------------------------

Reaction step 1.

Using solution 1.	
Using pure phase assemblage 1.	
Using gas phase 1.	

-----------------------------------Gas phase-----------------------------------

Total pressure:  1.00      atmospheres 
    Gas volume:   2.29e-01 liters
  Molar volume:   2.45e+01 liters/mole

                                                        Moles in gas
                                            ----------------------------------
Component                log P           P     Initial       Final       Delta

CO2(g)                   -3.51   3.118e-04   1.349e-05   2.922e-06  -1.057e-05
O2(g)                    -0.00   9.997e-01   1.063e-02   9.368e-03  -1.259e-03

-------------------------------Phase assemblage--------------------------------

                                                      Moles in assemblage
Phase               SI  log IAP  log K(T, P)   Initial       Final       Delta

NaCl              0.00   -20.00    -20.00    1.000e+01   1.001e+01   1.000e-02
pH_set           -2.70    -2.70      0.00
	 HCl                is reactant       1.000e+01   9.998e+00  -2.098e-03

-----------------------------Solution composition------------------------------

	Elements           Molality       Moles

	C                 1.057e-05   1.057e-05
	Cl                2.098e-03   2.098e-03
	Na                5.270e-18   5.270e-18
	Ra                5.979e-10   5.979e-10

----------------------------Description of solution----------------------------

                                       pH  =   2.700      Charge balance
                                       pe  =  18.070      Adjusted to redox equilibrium
                        Activity of water  =   1.000
                           Ionic strength  =   2.097e-03
                       Mass of water (kg)  =   1.000e+00
                 Total alkalinity (eq/kg)  =  -2.098e-03
                       Total CO2 (mol/kg)  =   1.057e-05
                         Temperature (°C)  =  25.00
                  Electrical balance (eq)  =   1.207e-09
 Percent error, 100*(Cat-|An|)/(Cat+|An|)  =   0.00
                               Iterations  =  25
                         Gamma iterations  =   3
                      Osmotic coefficient  =   0.98777
                                  Total H  = 1.110219e+02
                                  Total O  = 5.551245e+01

----------------------------Distribution of species----------------------------

                                               Log       Log       Log    mole V
   Species          Molality    Activity  Molality  Activity     Gamma   cm³/mol

   H+              2.097e-03   1.995e-03    -2.678    -2.700    -0.022      0.00
   OH-             5.270e-12   5.011e-12   -11.278   -11.300    -0.022     (0)  
   H2O             5.551e+01   9.999e-01     1.744    -0.000     0.000     18.07
C(-4)         0.000e+00
   CH4             0.000e+00   0.000e+00  -149.626  -149.626     0.000     (0)  
C(4)          1.057e-05
   CO2             1.056e-05   1.056e-05    -4.976    -4.976     0.000     (0)  
   HCO3-           2.487e-09   2.365e-09    -8.604    -8.626    -0.022     (0)  
   CO3-2           6.780e-17   5.543e-17   -16.169   -16.256    -0.087     (0)  
   Ra(HCO3)+       4.723e-18   4.492e-18   -17.326   -17.348    -0.022     (0)  
   Ra(CO3)         8.559e-24   8.559e-24   -23.068   -23.068     0.000     (0)  
   Na(HCO3)        6.665e-27   6.665e-27   -26.176   -26.176     0.000     (0)  
   Na(CO3)-        5.173e-33   5.173e-33   -32.286   -32.286     0.000     (0)  
   CO              0.000e+00   0.000e+00   -51.596   -51.596     0.000     (0)  
Cl            2.098e-03
   Cl-             2.097e-03   1.995e-03    -2.678    -2.700    -0.022     (0)  
   HCl             7.762e-07   7.762e-07    -6.110    -6.110     0.000     (0)  
   RaCl+           8.137e-13   7.738e-13   -12.090   -12.111    -0.022     (0)  
   RaCl2           1.544e-15   1.544e-15   -14.811   -14.811     0.000     (0)  
   Cl2             3.388e-17   3.388e-17   -16.470   -16.470     0.000     (0)  
   ClO4-           2.462e-25   2.343e-25   -24.609   -24.630    -0.022     (0)  
H(0)          0.000e+00
   H2              0.000e+00   0.000e+00   -44.620   -44.620     0.000     (0)  
Na            5.270e-18
   Na+             5.270e-18   5.012e-18   -17.278   -17.300    -0.022     (0)  
   Na(HCO3)        6.665e-27   6.665e-27   -26.176   -26.176     0.000     (0)  
   Na(CO3)-        5.173e-33   5.173e-33   -32.286   -32.286     0.000     (0)  
O(0)          2.517e-03
   O2              1.259e-03   1.259e-03    -2.900    -2.900     0.000     (0)  
Ra            5.979e-10
   Ra+2            5.971e-10   4.882e-10    -9.224    -9.311    -0.087     (0)  
   RaCl+           8.137e-13   7.738e-13   -12.090   -12.111    -0.022     (0)  
   RaCl2           1.544e-15   1.544e-15   -14.811   -14.811     0.000     (0)  
   Ra(HCO3)+       4.723e-18   4.492e-18   -17.326   -17.348    -0.022     (0)  
   Ra(OH)+         8.326e-21   7.917e-21   -20.080   -20.101    -0.022     (0)  
   Ra(CO3)         8.559e-24   8.559e-24   -23.068   -23.068     0.000     (0)  
   Ra(OH)2         1.044e-32   1.044e-32   -31.981   -31.981     0.000     (0)  

------------------------------Saturation indices-------------------------------

  Phase               SI** log IAP   log K(298 K,   1 atm)

  C(cr)           -72.59   -104.74  -32.15  C
  CH4(g)         -146.77   -187.82  -41.05  CH4
  Cl2(g)          -15.24     30.74   45.98  Cl2
  CO(g)           -48.56    -63.20  -14.64  CO
  CO2(g)           -3.51    -21.66  -18.15  CO2
  H2(g)           -41.54    -41.54    0.00  H2
  H2O(g)           -1.50    -42.99  -41.49  H2O
  Halite          -21.59    -20.00    1.59  NaCl
  HCl(g)          -11.69     -5.40    6.29  HCl
  Na(cr)          -81.26    -35.37   45.89  Na
  Na2(CO3)(cr)    -51.98    -50.86    1.12  Na2(CO3)
  Na2CO3:7H2O(s)  -50.40    -50.86   -0.46  Na2CO3:7H2O
  Na2O(cr)        -96.66    -29.20   67.46  Na2O
  NaCl              0.00    -20.00  -20.00  NaCl
  Nahcolite       -25.52    -36.26  -10.74  Na(HCO3)
  Natron          -50.03    -50.86   -0.83  Na2(CO3):10H2O
  O2(g)            -0.00     -2.90   -2.90  O2
  pH_set           -2.70     -2.70    0.00  H+
  Ra(CO3)(s)      -17.27    -25.57   -8.30  Ra(CO3)
  Ra(cr)         -143.89    -45.45   98.44  Ra
  Ra(OH)2(s)      -34.90     -3.91   30.99  Ra(OH)2
  RaCl2:2H2O(s)   -13.98    -14.71   -0.73  RaCl2:2H2O
  Thermonatrite   -51.34    -50.86    0.48  Na2(CO3):H2O
  Trona           -75.73    -87.11  -11.38  Na3H(CO3)2:2H2O

**For a gas, SI = log10(fugacity). Fugacity = pressure * phi / 1 atm.
  For ideal gases, phi = 1.

------------------
End of simulation.
------------------

-------------------------------------
Reading input data for simulation 12.
-------------------------------------

	USE solution 1
	 USE gas_phase 1
	EQUILIBRIUM_PHASES 1
	NaCl 0 10.0
	pH_set -2.8000e+00 HCl 10.0
	END
-----------------------------------------
Beginning of batch-reaction calculations.
-----------------------------------------

Reaction step 1.

Using solution 1.	
Using pure phase assemblage 1.	
Using gas phase 1.	

-----------------------------------Gas phase-----------------------------------

Total pressure:  1.00      atmospheres 
    Gas volume:   2.29e-01 liters
  Molar volume:   2.45e+01 liters/mole

                                                        Moles in gas
                                            ----------------------------------
Component                log P           P     Initial       Final       Delta

CO2(g)                   -3.51   3.117e-04   1.349e-05   2.922e-06  -1.057e-05
O2(g)                    -0.00   9.997e-01   1.063e-02   9.368e-03  -1.259e-03

-------------------------------Phase assemblage--------------------------------

                                                      Moles in assemblage
Phase               SI  log IAP  log K(T, P)   Initial       Final       Delta

NaCl              0.00   -20.00    -20.00    1.000e+01   1.001e+01   1.000e-02
pH_set           -2.80    -2.80      0.00
	 HCl                is reactant       1.000e+01   9.998e+00  -1.658e-03

-----------------------------Solution composition------------------------------

	Elements           Molality       Moles

	C                 1.057e-05   1.057e-05
	Cl                1.658e-03   1.658e-03
	Na                6.600e-18   6.600e-18
	Ra                5.979e-10   5.979e-10

----------------------------Description of solution----------------------------

                                       pH  =   2.800      Charge balance
                                       pe  =  17.970      Adjusted to redox equilibrium
                        Activity of water  =   1.000
                           Ionic strength  =   1.657e-03
                       Mass of water (kg)  =   1.000e+00
                 Total alkalinity (eq/kg)  =  -1.658e-03
                       Total CO2 (mol/kg)  =   1.057e-05
                         Temperature (°C)  =  25.00
                  Electrical balance (eq)  =   1.207e-09
 Percent error, 100*(Cat-|An|)/(Cat+|An|)  =   0.00
                               Iterations  =  24
                         Gamma iterations  =   3
                      Osmotic coefficient  =   0.98963
                                  Total H  = 1.110215e+02
                                  Total O  = 5.551245e+01

----------------------------Distribution of species----------------------------

                                               Log       Log       Log    mole V
   Species          Molality    Activity  Molality  Activity     Gamma   cm³/mol

   H+              1.657e-03   1.585e-03    -2.781    -2.800    -0.019      0.00
   OH-             6.600e-12   6.309e-12   -11.180   -11.200    -0.020     (0)  
   H2O             5.551e+01   9.999e-01     1.744    -0.000     0.000     18.07
C(-4)         0.000e+00
   CH4             0.000e+00   0.000e+00  -149.626  -149.626     0.000     (0)  
C(4)          1.057e-05
   CO2             1.056e-05   1.056e-05    -4.976    -4.976     0.000     (0)  
   HCO3-           3.114e-09   2.977e-09    -8.507    -8.526    -0.020     (0)  
   CO3-2           1.052e-16   8.786e-17   -15.978   -16.056    -0.078     (0)  
   Ra(HCO3)+       6.043e-18   5.776e-18   -17.219   -17.238    -0.020     (0)  
   Ra(CO3)         1.386e-23   1.386e-23   -22.858   -22.858     0.000     (0)  
   Na(HCO3)        1.056e-26   1.056e-26   -25.976   -25.976     0.000     (0)  
   Na(CO3)-        1.032e-32   1.032e-32   -31.986   -31.986     0.000     (0)  
   CO              0.000e+00   0.000e+00   -51.596   -51.596     0.000     (0)  
Cl            1.658e-03
   Cl-             1.657e-03   1.585e-03    -2.781    -2.800    -0.019     (0)  
   HCl             4.898e-07   4.898e-07    -6.310    -6.310     0.000     (0)  
   RaCl+           6.568e-13   6.279e-13   -12.183   -12.202    -0.020     (0)  
   RaCl2           9.951e-16   9.951e-16   -15.002   -15.002     0.000     (0)  
   Cl2             1.349e-17   1.349e-17   -16.870   -16.870     0.000     (0)  
   ClO4-           1.946e-25   1.861e-25   -24.711   -24.730    -0.019     (0)  
H(0)          0.000e+00
   H2              0.000e+00   0.000e+00   -44.620   -44.620     0.000     (0)  
Na            6.600e-18
   Na+             6.600e-18   6.310e-18   -17.180   -17.200    -0.020     (0)  
   Na(HCO3)        1.056e-26   1.056e-26   -25.976   -25.976     0.000     (0)  
   Na(CO3)-        1.032e-32   1.032e-32   -31.986   -31.986     0.000     (0)  
O(0)          2.517e-03
   O2              1.259e-03   1.259e-03    -2.900    -2.900     0.000     (0)  
Ra            5.979e-10
   Ra+2            5.972e-10   4.987e-10    -9.224    -9.302    -0.078     (0)  
   RaCl+           6.568e-13   6.279e-13   -12.183   -12.202    -0.020     (0)  
   RaCl2           9.951e-16   9.951e-16   -15.002   -15.002     0.000     (0)  
   Ra(HCO3)+       6.043e-18   5.776e-18   -17.219   -17.238    -0.020     (0)  
   Ra(OH)+         1.065e-20   1.018e-20   -19.973   -19.992    -0.020     (0)  
   Ra(CO3)         1.386e-23   1.386e-23   -22.858   -22.858     0.000     (0)  
   Ra(OH)2         1.690e-32   1.690e-32   -31.772   -31.772     0.000     (0)  

------------------------------Saturation indices-------------------------------

  Phase               SI** log IAP   log K(298 K,   1 atm)

  C(cr)           -72.59   -104.74  -32.15  C
  CH4(g)         -146.77   -187.82  -41.05  CH4
  Cl2(g)          -15.64     30.34   45.98  Cl2
  CO(g)           -48.56    -63.20  -14.64  CO
  CO2(g)           -3.51    -21.66  -18.15  CO2
  H2(g)           -41.54    -41.54    0.00  H2
  H2O(g)           -1.50    -42.99  -41.49  H2O
  Halite          -21.59    -20.00    1.59  NaCl
  HCl(g)          -11.89     -5.60    6.29  HCl
  Na(cr)          -81.06    -35.17   45.89  Na
  Na2(CO3)(cr)    -51.58    -50.46    1.12  Na2(CO3)
  Na2CO3:7H2O(s)  -50.00    -50.46   -0.46  Na2CO3:7H2O
  Na2O(cr)        -96.26    -28.80   67.46  Na2O
  NaCl              0.00    -20.00  -20.00  NaCl
  Nahcolite       -25.32    -36.06  -10.74  Na(HCO3)
  Natron          -49.63    -50.46   -0.83  Na2(CO3):10H2O
  O2(g)            -0.00     -2.90   -2.90  O2
  pH_set           -2.80     -2.80    0.00  H+
  Ra(CO3)(s)      -17.06    -25.36   -8.30  Ra(CO3)
  Ra(cr)         -143.68    -45.24   98.44  Ra
  Ra(OH)2(s)      -34.69     -3.70   30.99  Ra(OH)2
  RaCl2:2H2O(s)   -14.17    -14.90   -0.73  RaCl2:2H2O
  Thermonatrite   -50.94    -50.46    0.48  Na2(CO3):H2O
  Trona           -75.13    -86.51  -11.38  Na3H(CO3)2:2H2O

**For a gas, SI = log10(fugacity). Fugacity = pressure * phi / 1 atm.
  For ideal gases, phi = 1.

------------------
End of simulation.
------------------

-------------------------------------
Reading input data for simulation 13.
-------------------------------------

	USE solution 1
	 USE gas_phase 1
	EQUILIBRIUM_PHASES 1
	NaCl 0 10.0
	pH_set -2.9000e+00 HCl 10.0
	END
-----------------------------------------
Beginning of batch-reaction calculations.
-----------------------------------------

Reaction step 1.

Using solution 1.	
Using pure phase assemblage 1.	
Using gas phase 1.	

-----------------------------------Gas phase-----------------------------------

Total pressure:  1.00      atmospheres 
    Gas volume:   2.29e-01 liters
  Molar volume:   2.45e+01 liters/mole

                                                        Moles in gas
                                            ----------------------------------
Component                log P           P     Initial       Final       Delta

CO2(g)                   -3.51   3.117e-04   1.349e-05   2.921e-06  -1.057e-05
O2(g)                    -0.00   9.997e-01   1.063e-02   9.368e-03  -1.259e-03

-------------------------------Phase assemblage--------------------------------

                                                      Moles in assemblage
Phase               SI  log IAP  log K(T, P)   Initial       Final       Delta

NaCl              0.00   -20.00    -20.00    1.000e+01   1.001e+01   1.000e-02
pH_set           -2.90    -2.90      0.00
	 HCl                is reactant       1.000e+01   9.999e+00  -1.311e-03

-----------------------------Solution composition------------------------------

	Elements           Molality       Moles

	C                 1.057e-05   1.057e-05
	Cl                1.311e-03   1.311e-03
	Na                8.269e-18   8.269e-18
	Ra                5.979e-10   5.979e-10

----------------------------Description of solution----------------------------

                                       pH  =   2.900      Charge balance
                                       pe  =  17.870      Adjusted to redox equilibrium
                        Activity of water  =   1.000
                           Ionic strength  =   1.310e-03
                       Mass of water (kg)  =   1.000e+00
                 Total alkalinity (eq/kg)  =  -1.311e-03
                       Total CO2 (mol/kg)  =   1.057e-05
                         Temperature (°C)  =  25.00
                  Electrical balance (eq)  =   1.207e-09
 Percent error, 100*(Cat-|An|)/(Cat+|An|)  =   0.00
                               Iterations  =  27
                         Gamma iterations  =   3
                      Osmotic coefficient  =   0.99131
                                  Total H  = 1.110211e+02
                                  Total O  = 5.551245e+01

----------------------------Distribution of species----------------------------

                                               Log       Log       Log    mole V
   Species          Molality    Activity  Molality  Activity     Gamma   cm³/mol

   H+              1.310e-03   1.259e-03    -2.883    -2.900    -0.017      0.00
   OH-             8.270e-12   7.943e-12   -11.083   -11.100    -0.018     (0)  
   H2O             5.551e+01   9.999e-01     1.744    -0.000     0.000     18.07
C(-4)         0.000e+00
   CH4             0.000e+00   0.000e+00  -149.626  -149.626     0.000     (0)  
C(4)          1.057e-05
   CO2             1.056e-05   1.056e-05    -4.976    -4.976     0.000     (0)  
   HCO3-           3.902e-09   3.748e-09    -8.409    -8.426    -0.018     (0)  
   CO3-2           1.636e-16   1.392e-16   -15.786   -15.856    -0.070     (0)  
   Ra(HCO3)+       7.717e-18   7.412e-18   -17.113   -17.130    -0.018     (0)  
   Ra(CO3)         2.238e-23   2.238e-23   -22.650   -22.650     0.000     (0)  
   Na(HCO3)        1.674e-26   1.674e-26   -25.776   -25.776     0.000     (0)  
   Na(CO3)-        2.059e-32   2.059e-32   -31.686   -31.686     0.000     (0)  
   CO              0.000e+00   0.000e+00   -51.596   -51.596     0.000     (0)  
Cl            1.311e-03
   Cl-             1.310e-03   1.259e-03    -2.883    -2.900    -0.017     (0)  
   HCl             3.090e-07   3.090e-07    -6.510    -6.510     0.000     (0)  
   RaCl+           5.293e-13   5.084e-13   -12.276   -12.294    -0.018     (0)  
   RaCl2           6.400e-16   6.400e-16   -15.194   -15.194     0.000     (0)  
   Cl2             5.370e-18   5.370e-18   -17.270   -17.270     0.000     (0)  
   ClO4-           1.538e-25   1.478e-25   -24.813   -24.830    -0.017     (0)  
H(0)          0.000e+00
   H2              0.000e+00   0.000e+00   -44.620   -44.620     0.000     (0)  
Na            8.269e-18
   Na+             8.269e-18   7.943e-18   -17.083   -17.100    -0.017     (0)  
   Na(HCO3)        1.674e-26   1.674e-26   -25.776   -25.776     0.000     (0)  
   Na(CO3)-        2.059e-32   2.059e-32   -31.686   -31.686     0.000     (0)  
O(0)          2.517e-03
   O2              1.259e-03   1.259e-03    -2.900    -2.900     0.000     (0)  
Ra            5.979e-10
   Ra+2            5.974e-10   5.084e-10    -9.224    -9.294    -0.070     (0)  
   RaCl+           5.293e-13   5.084e-13   -12.276   -12.294    -0.018     (0)  
   RaCl2           6.400e-16   6.400e-16   -15.194   -15.194     0.000     (0)  
   Ra(HCO3)+       7.717e-18   7.412e-18   -17.113   -17.130    -0.018     (0)  
   Ra(OH)+         1.360e-20   1.307e-20   -19.866   -19.884    -0.018     (0)  
   Ra(CO3)         2.238e-23   2.238e-23   -22.650   -22.650     0.000     (0)  
   Ra(OH)2         2.730e-32   2.730e-32   -31.564   -31.564     0.000     (0)  

------------------------------Saturation indices-------------------------------

  Phase               SI** log IAP   log K(298 K,   1 atm)

  C(cr)           -72.59   -104.74  -32.15  C
  CH4(g)         -146.77   -187.82  -41.05  CH4
  Cl2(g)          -16.04     29.94   45.98  Cl2
  CO(g)           -48.56    -63.20  -14.64  CO
  CO2(g)           -3.51    -21.66  -18.15  CO2
  H2(g)           -41.54    -41.54    0.00  H2
  H2O(g)           -1.50    -42.99  -41.49  H2O
  Halite          -21.59    -20.00    1.59  NaCl
  HCl(g)          -12.09     -5.80    6.29  HCl
  Na(cr)          -80.86    -34.97   45.89  Na
  Na2(CO3)(cr)    -51.18    -50.06    1.12  Na2(CO3)
  Na2CO3:7H2O(s)  -49.60    -50.06   -0.46  Na2CO3:7H2O
  Na2O(cr)        -95.86    -28.40   67.46  Na2O
  NaCl              0.00    -20.00  -20.00  NaCl
  Nahcolite       -25.12    -35.86  -10.74  Na(HCO3)
  Natron          -49.23    -50.06   -0.83  Na2(CO3):10H2O
  O2(g)            -0.00     -2.90   -2.90  O2
  pH_set           -2.90     -2.90    0.00  H+
  Ra(CO3)(s)      -16.85    -25.15   -8.30  Ra(CO3)
  Ra(cr)         -143.47    -45.03   98.44  Ra
  Ra(OH)2(s)      -34.48     -3.49   30.99  Ra(OH)2
  RaCl2:2H2O(s)   -14.36    -15.09   -0.73  RaCl2:2H2O
  Thermonatrite   -50.54    -50.06    0.48  Na2(CO3):H2O
  Trona           -74.53    -85.91  -11.38  Na3H(CO3)2:2H2O

**For a gas, SI = log10(fugacity). Fugacity = pressure * phi / 1 atm.
  For ideal gases, phi = 1.

------------------
End of simulation.
------------------

-------------------------------------
Reading input data for simulation 14.
-------------------------------------

	USE solution 1
	 USE gas_phase 1
	EQUILIBRIUM_PHASES 1
	NaCl 0 10.0
	pH_set -3.0000e+00 HCl 10.0
	END
-----------------------------------------
Beginning of batch-reaction calculations.
-----------------------------------------

Reaction step 1.

Using solution 1.	
Using pure phase assemblage 1.	
Using gas phase 1.	

-----------------------------------Gas phase-----------------------------------

Total pressure:  1.00      atmospheres 
    Gas volume:   2.29e-01 liters
  Molar volume:   2.45e+01 liters/mole

                                                        Moles in gas
                                            ----------------------------------
Component                log P           P     Initial       Final       Delta

CO2(g)                   -3.51   3.117e-04   1.349e-05   2.921e-06  -1.057e-05
O2(g)                    -0.00   9.997e-01   1.063e-02   9.368e-03  -1.259e-03

-------------------------------Phase assemblage--------------------------------

                                                      Moles in assemblage
Phase               SI  log IAP  log K(T, P)   Initial       Final       Delta

NaCl              0.00   -20.00    -20.00    1.000e+01   1.001e+01   1.000e-02
pH_set           -3.00    -3.00      0.00
	 HCl                is reactant       1.000e+01   9.999e+00  -1.037e-03

-----------------------------Solution composition------------------------------

	Elements           Molality       Moles

	C                 1.057e-05   1.057e-05
	Cl                1.037e-03   1.037e-03
	Na                1.037e-17   1.037e-17
	Ra                5.979e-10   5.979e-10

----------------------------Description of solution----------------------------

                                       pH  =   3.000      Charge balance
                                       pe  =  17.770      Adjusted to redox equilibrium
                        Activity of water  =   1.000
                           Ionic strength  =   1.036e-03
                       Mass of water (kg)  =   1.000e+00
                 Total alkalinity (eq/kg)  =  -1.037e-03
                       Total CO2 (mol/kg)  =   1.057e-05
                         Temperature (°C)  =  25.00
                  Electrical balance (eq)  =   1.207e-09
 Percent error, 100*(Cat-|An|)/(Cat+|An|)  =   0.00
                               Iterations  =  25
                         Gamma iterations  =   3
                      Osmotic coefficient  =   0.99281
                                  Total H  = 1.110209e+02
                                  Total O  = 5.551245e+01

----------------------------Distribution of species----------------------------

                                               Log       Log       Log    mole V
   Species          Molality    Activity  Molality  Activity     Gamma   cm³/mol

   H+              1.036e-03   1.000e-03    -2.984    -3.000    -0.016      0.00
   OH-             1.037e-11   9.999e-12   -10.984   -11.000    -0.016     (0)  
   H2O             5.551e+01   9.999e-01     1.744    -0.000     0.000     18.07
C(-4)         0.000e+00
[...]

	Elements           Molality       Moles

	C                 1.349e-05   1.349e-05
	Cl                1.270e-16   1.270e-16
	Na                8.040e-05   8.040e-05
	Ra                5.979e-10   5.979e-10

----------------------------Description of solution----------------------------

                                       pH  =   9.800      Charge balance
                                       pe  =  10.970      Adjusted to redox equilibrium
                        Activity of water  =   1.000
                           Ionic strength  =   8.354e-05
                       Mass of water (kg)  =   1.000e+00
                 Total alkalinity (eq/kg)  =   8.040e-05
                       Total CO2 (mol/kg)  =   1.349e-05
                         Temperature (°C)  =  25.00
                  Electrical balance (eq)  =   1.207e-09
 Percent error, 100*(Cat-|An|)/(Cat+|An|)  =   0.00
                               Iterations  =  36
                         Gamma iterations  =   3
                      Osmotic coefficient  =   0.99959
                                  Total H  = 1.110197e+02
                                  Total O  = 5.551246e+01

----------------------------Distribution of species----------------------------

                                               Log       Log       Log    mole V
   Species          Molality    Activity  Molality  Activity     Gamma   cm³/mol

   OH-             6.377e-05   6.309e-05    -4.195    -4.200    -0.005     (0)  
   H+              1.602e-10   1.585e-10    -9.795    -9.800    -0.005      0.00
   H2O             5.551e+01   1.000e+00     1.744    -0.000     0.000     18.07
C(-4)         0.000e+00
   CH4             0.000e+00   0.000e+00  -153.090  -153.090     0.000     (0)  
C(4)          1.349e-05
   HCO3-           1.033e-05   1.022e-05    -4.986    -4.990    -0.005     (0)  
   CO3-2           3.147e-06   3.017e-06    -5.502    -5.520    -0.018     (0)  
   Na(CO3)-        4.516e-09   4.469e-09    -8.345    -8.350    -0.005     (0)  
   CO2             3.627e-09   3.627e-09    -8.440    -8.440     0.000     (0)  
   Na(HCO3)        4.573e-10   4.573e-10    -9.340    -9.340     0.000     (0)  
   Ra(CO3)         5.461e-13   5.461e-13   -12.263   -12.263     0.000     (0)  
   Ra(HCO3)+       2.301e-14   2.277e-14   -13.638   -13.643    -0.005     (0)  
   CO              0.000e+00   0.000e+00   -55.060   -55.060     0.000     (0)  
Cl            1.270e-16
   Cl-             1.270e-16   1.257e-16   -15.896   -15.901    -0.005     (0)  
   RaCl+           5.716e-26   5.716e-26   -25.243   -25.243     0.000     (0)  
   HCl             3.885e-27   3.885e-27   -26.411   -26.411     0.000     (0)  
   ClO4-           1.477e-38   1.477e-38   -37.831   -37.831     0.000     (0)  
   RaCl2           0.000e+00   0.000e+00   -41.144   -41.144     0.000     (0)  
   Cl2             0.000e+00   0.000e+00   -57.071   -57.071     0.000     (0)  
H(0)          0.000e+00
   H2              0.000e+00   0.000e+00   -44.620   -44.620     0.000     (0)  
Na            8.040e-05
   Na+             8.040e-05   7.955e-05    -4.095    -4.099    -0.005     (0)  
   Na(CO3)-        4.516e-09   4.469e-09    -8.345    -8.350    -0.005     (0)  
   Na(HCO3)        4.573e-10   4.573e-10    -9.340    -9.340     0.000     (0)  
O(0)          2.518e-03
   O2              1.259e-03   1.259e-03    -2.900    -2.900     0.000     (0)  
Ra            5.979e-10
   Ra+2            5.972e-10   5.724e-10    -9.224    -9.242    -0.018     (0)  
   Ra(CO3)         5.461e-13   5.461e-13   -12.263   -12.263     0.000     (0)  
   Ra(OH)+         1.181e-13   1.169e-13   -12.928   -12.932    -0.005     (0)  
   Ra(HCO3)+       2.301e-14   2.277e-14   -13.638   -13.643    -0.005     (0)  
   Ra(OH)2         1.940e-18   1.940e-18   -17.712   -17.712     0.000     (0)  
   RaCl+           5.716e-26   5.716e-26   -25.243   -25.243     0.000     (0)  
   RaCl2           0.000e+00   0.000e+00   -41.144   -41.144     0.000     (0)  

------------------------------Saturation indices-------------------------------

  Phase               SI** log IAP   log K(298 K,   1 atm)

  C(cr)           -76.05   -108.20  -32.15  C
  CH4(g)         -150.23   -191.28  -41.05  CH4
  Cl2(g)          -55.84     -9.86   45.98  Cl2
  CO(g)           -52.02    -66.66  -14.64  CO
  CO2(g)           -6.97    -25.12  -18.15  CO2
  H2(g)           -41.54    -41.54    0.00  H2
  H2O(g)           -1.50    -42.99  -41.49  H2O
  Halite          -21.59    -20.00    1.59  NaCl
  HCl(g)          -31.99    -25.70    6.29  HCl
  Na(cr)          -60.96    -15.07   45.89  Na
  Na2(CO3)(cr)    -14.84    -13.72    1.12  Na2(CO3)
  Na2CO3:7H2O(s)  -13.26    -13.72   -0.46  Na2CO3:7H2O
  Na2O(cr)        -56.06     11.40   67.46  Na2O
  NaCl              0.00    -20.00  -20.00  NaCl
  Nahcolite        -8.68    -19.42  -10.74  Na(HCO3)
  Natron          -12.89    -13.72   -0.83  Na2(CO3):10H2O
  O2(g)            -0.00     -2.90   -2.90  O2
  pH_set           -9.80     -9.80    0.00  H+
  Ra(CO3)(s)       -6.46    -14.76   -8.30  Ra(CO3)
  Ra(cr)         -129.62    -31.18   98.44  Ra
  Ra(OH)2(s)      -20.63     10.36   30.99  Ra(OH)2
  RaCl2:2H2O(s)   -40.31    -41.04   -0.73  RaCl2:2H2O
  Thermonatrite   -14.20    -13.72    0.48  Na2(CO3):H2O
  Trona           -21.76    -33.14  -11.38  Na3H(CO3)2:2H2O

**For a gas, SI = log10(fugacity). Fugacity = pressure * phi / 1 atm.
  For ideal gases, phi = 1.

------------------
End of simulation.
------------------

-------------------------------------
Reading input data for simulation 83.
-------------------------------------

	USE solution 1
	 USE gas_phase 1
	EQUILIBRIUM_PHASES 1
	NaCl 0 10.0
	pH_set -9.9000e+00 HCl 10.0
	END
-----------------------------------------
Beginning of batch-reaction calculations.
-----------------------------------------

Reaction step 1.

Using solution 1.	
Using pure phase assemblage 1.	
Using gas phase 1.	

-----------------------------------Gas phase-----------------------------------

Total pressure:  1.00      atmospheres 
    Gas volume:   2.29e-01 liters
  Molar volume:   2.45e+01 liters/mole

                                                        Moles in gas
                                            ----------------------------------
Component                log P           P     Initial       Final       Delta

CO2(g)                   -7.10   8.002e-08   1.349e-05   7.496e-10  -1.349e-05
O2(g)                    -0.00   1.000e+00   1.063e-02   9.368e-03  -1.259e-03

-------------------------------Phase assemblage--------------------------------

                                                      Moles in assemblage
Phase               SI  log IAP  log K(T, P)   Initial       Final       Delta

NaCl              0.00   -20.00    -20.00    1.000e+01   1.001e+01   9.902e-03
pH_set           -9.90    -9.90      0.00
	 HCl                is reactant       1.000e+01   1.000e+01   9.760e-05

-----------------------------Solution composition------------------------------

	Elements           Molality       Moles

	C                 1.349e-05   1.349e-05
	Cl                1.049e-16   1.049e-16
	Na                9.760e-05   9.760e-05
	Ra                5.979e-10   5.979e-10

----------------------------Description of solution----------------------------

                                       pH  =   9.900      Charge balance
                                       pe  =  10.870      Adjusted to redox equilibrium
                        Activity of water  =   1.000
                           Ionic strength  =   1.013e-04
                       Mass of water (kg)  =   1.000e+00
                 Total alkalinity (eq/kg)  =   9.760e-05
                       Total CO2 (mol/kg)  =   1.349e-05
                         Temperature (°C)  =  25.00
                  Electrical balance (eq)  =   1.207e-09
 Percent error, 100*(Cat-|An|)/(Cat+|An|)  =   0.00
                               Iterations  =  39
                         Gamma iterations  =   3
                      Osmotic coefficient  =   0.99946
                                  Total H  = 1.110197e+02
                                  Total O  = 5.551246e+01

----------------------------Distribution of species----------------------------

                                               Log       Log       Log    mole V
   Species          Molality    Activity  Molality  Activity     Gamma   cm³/mol

   OH-             8.036e-05   7.943e-05    -4.095    -4.100    -0.005     (0)  
   H+              1.274e-10   1.259e-10    -9.895    -9.900    -0.005      0.00
   H2O             5.551e+01   1.000e+00     1.744    -0.000     0.000     18.07
C(-4)         0.000e+00
   CH4             0.000e+00   0.000e+00  -153.217  -153.217     0.000     (0)  
C(4)          1.349e-05
   HCO3-           9.733e-06   9.620e-06    -5.012    -5.017    -0.005     (0)  
   CO3-2           3.745e-06   3.574e-06    -5.427    -5.447    -0.020     (0)  
   Na(CO3)-        6.495e-09   6.420e-09    -8.187    -8.192    -0.005     (0)  
   CO2             2.711e-09   2.711e-09    -8.567    -8.567     0.000     (0)  
   Na(HCO3)        5.218e-10   5.218e-10    -9.282    -9.282     0.000     (0)  
   Ra(CO3)         6.442e-13   6.442e-13   -12.191   -12.191     0.000     (0)  
   Ra(HCO3)+       2.158e-14   2.133e-14   -13.666   -13.671    -0.005     (0)  
   CO              0.000e+00   0.000e+00   -55.187   -55.187     0.000     (0)  
Cl            1.049e-16
   Cl-             1.049e-16   1.037e-16   -15.979   -15.984    -0.005     (0)  
   RaCl+           4.693e-26   4.693e-26   -25.329   -25.329     0.000     (0)  
   HCl             2.545e-27   2.545e-27   -26.594   -26.594     0.000     (0)  
   ClO4-           1.218e-38   1.218e-38   -37.914   -37.914     0.000     (0)  
   RaCl2           0.000e+00   0.000e+00   -41.313   -41.313     0.000     (0)  
   Cl2             0.000e+00   0.000e+00   -57.439   -57.439     0.000     (0)  
H(0)          0.000e+00
   H2              0.000e+00   0.000e+00   -44.620   -44.620     0.000     (0)  
Na            9.760e-05
   Na+             9.759e-05   9.646e-05    -4.011    -4.016    -0.005     (0)  
   Na(CO3)-        6.495e-09   6.420e-09    -8.187    -8.192    -0.005     (0)  
   Na(HCO3)        5.218e-10   5.218e-10    -9.282    -9.282     0.000     (0)  
O(0)          2.518e-03
   O2              1.259e-03   1.259e-03    -2.900    -2.900     0.000     (0)  
Ra            5.979e-10
   Ra+2            5.971e-10   5.699e-10    -9.224    -9.244    -0.020     (0)  
   Ra(CO3)         6.442e-13   6.442e-13   -12.191   -12.191     0.000     (0)  
   Ra(OH)+         1.482e-13   1.465e-13   -12.829   -12.834    -0.005     (0)  
   Ra(HCO3)+       2.158e-14   2.133e-14   -13.666   -13.671    -0.005     (0)  
   Ra(OH)2         3.060e-18   3.060e-18   -17.514   -17.514     0.000     (0)  
   RaCl+           4.693e-26   4.693e-26   -25.329   -25.329     0.000     (0)  
   RaCl2           0.000e+00   0.000e+00   -41.313   -41.313     0.000     (0)  

------------------------------Saturation indices-------------------------------

  Phase               SI** log IAP   log K(298 K,   1 atm)

  C(cr)           -76.18   -108.33  -32.15  C
  CH4(g)         -150.36   -191.41  -41.05  CH4
  Cl2(g)          -56.21    -10.23   45.98  Cl2
  CO(g)           -52.15    -66.79  -14.64  CO
  CO2(g)           -7.10    -25.25  -18.15  CO2
  H2(g)           -41.54    -41.54    0.00  H2
  H2O(g)           -1.50    -42.99  -41.49  H2O
  Halite          -21.59    -20.00    1.59  NaCl
  HCl(g)          -32.17    -25.88    6.29  HCl
  Na(cr)          -60.78    -14.89   45.89  Na
  Na2(CO3)(cr)    -14.60    -13.48    1.12  Na2(CO3)
  Na2CO3:7H2O(s)  -13.02    -13.48   -0.46  Na2CO3:7H2O
  Na2O(cr)        -55.69     11.77   67.46  Na2O
  NaCl              0.00    -20.00  -20.00  NaCl
  Nahcolite        -8.62    -19.36  -10.74  Na(HCO3)
  Natron          -12.65    -13.48   -0.83  Na2(CO3):10H2O
  O2(g)            -0.00     -2.90   -2.90  O2
  pH_set           -9.90     -9.90    0.00  H+
  Ra(CO3)(s)       -6.39    -14.69   -8.30  Ra(CO3)
  Ra(cr)         -129.42    -30.98   98.44  Ra
  Ra(OH)2(s)      -20.43     10.56   30.99  Ra(OH)2
  RaCl2:2H2O(s)   -40.48    -41.21   -0.73  RaCl2:2H2O
  Thermonatrite   -13.96    -13.48    0.48  Na2(CO3):H2O
  Trona           -21.46    -32.84  -11.38  Na3H(CO3)2:2H2O

**For a gas, SI = log10(fugacity). Fugacity = pressure * phi / 1 atm.
  For ideal gases, phi = 1.

------------------
End of simulation.
------------------

-------------------------------------
Reading input data for simulation 84.
-------------------------------------

	USE solution 1
	 USE gas_phase 1
	EQUILIBRIUM_PHASES 1
	NaCl 0 10.0
	pH_set -1.0000e+01 HCl 10.0
	END
-----------------------------------------
Beginning of batch-reaction calculations.
-----------------------------------------

Reaction step 1.

Using solution 1.	
Using pure phase assemblage 1.	
Using gas phase 1.	

-----------------------------------Gas phase-----------------------------------

Total pressure:  1.00      atmospheres 
    Gas volume:   2.29e-01 liters
  Molar volume:   2.45e+01 liters/mole

                                                        Moles in gas
                                            ----------------------------------
Component                log P           P     Initial       Final       Delta

CO2(g)                   -7.23   5.915e-08   1.349e-05   5.541e-10  -1.349e-05
O2(g)                    -0.00   1.000e+00   1.063e-02   9.368e-03  -1.259e-03

-------------------------------Phase assemblage--------------------------------

                                                      Moles in assemblage
Phase               SI  log IAP  log K(T, P)   Initial       Final       Delta

NaCl              0.00   -20.00    -20.00    1.000e+01   1.001e+01   9.881e-03
pH_set          -10.00   -10.00      0.00
	 HCl                is reactant       1.000e+01   1.000e+01   1.192e-04

-----------------------------Solution composition------------------------------

	Elements           Molality       Moles

	C                 1.349e-05   1.349e-05
	Cl                8.609e-17   8.609e-17
	Na                1.192e-04   1.192e-04
	Ra                5.979e-10   5.979e-10

----------------------------Description of solution----------------------------

                                       pH  =  10.000      Charge balance
                                       pe  =  10.770      Adjusted to redox equilibrium
                        Activity of water  =   1.000
                           Ionic strength  =   1.236e-04
                       Mass of water (kg)  =   1.000e+00
                 Total alkalinity (eq/kg)  =   1.192e-04
                       Total CO2 (mol/kg)  =   1.349e-05
                         Temperature (°C)  =  25.00
                  Electrical balance (eq)  =   1.207e-09
 Percent error, 100*(Cat-|An|)/(Cat+|An|)  =   0.00
                               Iterations  =  42
                         Gamma iterations  =   3
                      Osmotic coefficient  =   0.99930
                                  Total H  = 1.110197e+02
                                  Total O  = 5.551246e+01

----------------------------Distribution of species----------------------------

                                               Log       Log       Log    mole V
   Species          Molality    Activity  Molality  Activity     Gamma   cm³/mol

   OH-             1.013e-04   1.000e-04    -3.994    -4.000    -0.006     (0)  
   H+              1.013e-10   1.000e-10    -9.994   -10.000    -0.006      0.00
   H2O             5.551e+01   1.000e+00     1.744    -0.000     0.000     18.07
C(-4)         0.000e+00
   CH4             0.000e+00   0.000e+00  -153.348  -153.348     0.000     (0)  
C(4)          1.349e-05
   HCO3-           9.068e-06   8.952e-06    -5.043    -5.048    -0.006     (0)  
   CO3-2           4.408e-06   4.187e-06    -5.356    -5.378    -0.022     (0)  
   Na(CO3)-        9.292e-09   9.174e-09    -8.032    -8.037    -0.006     (0)  
   CO2             2.004e-09   2.004e-09    -8.698    -8.698     0.000     (0)  
   Na(HCO3)        5.923e-10   5.923e-10    -9.227    -9.227     0.000     (0)  
   Ra(CO3)         7.508e-13   7.508e-13   -12.124   -12.124     0.000     (0)  
   Ra(HCO3)+       2.000e-14   1.975e-14   -13.699   -13.704    -0.006     (0)  
   CO              0.000e+00   0.000e+00   -55.318   -55.318     0.000     (0)  
Cl            8.609e-17
   Cl-             8.609e-17   8.499e-17   -16.065   -16.071    -0.006     (0)  
   RaCl+           3.828e-26   3.828e-26   -25.417   -25.417     0.000     (0)  
   HCl             1.657e-27   1.657e-27   -26.781   -26.781     0.000     (0)  
   ClO4-           9.985e-39   9.985e-39   -38.001   -38.001     0.000     (0)  
   RaCl2           0.000e+00   0.000e+00   -41.488   -41.488     0.000     (0)  
   Cl2             0.000e+00   0.000e+00   -57.811   -57.811     0.000     (0)  
H(0)          0.000e+00
   H2              0.000e+00   0.000e+00   -44.620   -44.620     0.000     (0)  
Na            1.192e-04
   Na+             1.192e-04   1.177e-04    -3.924    -3.929    -0.006     (0)  
   Na(CO3)-        9.292e-09   9.174e-09    -8.032    -8.037    -0.006     (0)  
   Na(HCO3)        5.923e-10   5.923e-10    -9.227    -9.227     0.000     (0)  
O(0)          2.518e-03
   O2              1.259e-03   1.259e-03    -2.900    -2.900     0.000     (0)  
Ra            5.979e-10
   Ra+2            5.969e-10   5.671e-10    -9.224    -9.246    -0.022     (0)  
   Ra(CO3)         7.508e-13   7.508e-13   -12.124   -12.124     0.000     (0)  
   Ra(OH)+         1.859e-13   1.835e-13   -12.731   -12.736    -0.006     (0)  
   Ra(HCO3)+       2.000e-14   1.975e-14   -13.699   -13.704    -0.006     (0)  
   Ra(OH)2         4.826e-18   4.826e-18   -17.316   -17.316     0.000     (0)  
   RaCl+           3.828e-26   3.828e-26   -25.417   -25.417     0.000     (0)  
   RaCl2           0.000e+00   0.000e+00   -41.488   -41.488     0.000     (0)  

------------------------------Saturation indices-------------------------------

  Phase               SI** log IAP   log K(298 K,   1 atm)

  C(cr)           -76.31   -108.46  -32.15  C
  CH4(g)         -150.49   -191.54  -41.05  CH4
  Cl2(g)          -56.58    -10.60   45.98  Cl2
  CO(g)           -52.28    -66.92  -14.64  CO
  CO2(g)           -7.23    -25.38  -18.15  CO2
  H2(g)           -41.54    -41.54    0.00  H2
  H2O(g)           -1.50    -42.99  -41.49  H2O
  Halite          -21.59    -20.00    1.59  NaCl
  HCl(g)          -32.36    -26.07    6.29  HCl
  Na(cr)          -60.59    -14.70   45.89  Na
  Na2(CO3)(cr)    -14.36    -13.24    1.12  Na2(CO3)
  Na2CO3:7H2O(s)  -12.78    -13.24   -0.46  Na2CO3:7H2O
  Na2O(cr)        -55.32     12.14   67.46  Na2O
  NaCl              0.00    -20.00  -20.00  NaCl
  Nahcolite        -8.57    -19.31  -10.74  Na(HCO3)
  Natron          -12.41    -13.24   -0.83  Na2(CO3):10H2O
  O2(g)            -0.00     -2.90   -2.90  O2
  pH_set          -10.00    -10.00    0.00  H+
  Ra(CO3)(s)       -6.32    -14.62   -8.30  Ra(CO3)
  Ra(cr)         -129.23    -30.79   98.44  Ra
  Ra(OH)2(s)      -20.24     10.75   30.99  Ra(OH)2
  RaCl2:2H2O(s)   -40.66    -41.39   -0.73  RaCl2:2H2O
  Thermonatrite   -13.72    -13.24    0.48  Na2(CO3):H2O
  Trona           -21.16    -32.54  -11.38  Na3H(CO3)2:2H2O

**For a gas, SI = log10(fugacity). Fugacity = pressure * phi / 1 atm.
  For ideal gases, phi = 1.

------------------
End of simulation.
------------------

-------------------------------------
Reading input data for simulation 85.
-------------------------------------

	END
------------------
End of simulation.
------------------

-------------------------------------
Reading input data for simulation 86.
-------------------------------------

-------------------------------
End of Run after 0.886 Seconds.
-------------------------------

