   Input file: C:\Users\Michael\Dropbox (Personal)\work\MIT Graduate Work\Research\RadiumSorption\Surface Complexation\PHREEQC Modeling\Test.pqi
  Output file: C:\Users\Michael\Dropbox (Personal)\work\MIT Graduate Work\Research\RadiumSorption\Surface Complexation\PHREEQC Modeling\Test.pqo
Database file: C:\Program Files (x86)\USGS\Phreeqc Interactive 3.1.4-8929\database\sit.dat

------------------
Reading data base.
------------------

	SOLUTION_MASTER_SPECIES
	SIT
WARNING: Redefinition of parameter, NO3- Na+

	SOLUTION_SPECIES
	PHASES
------------------------------------
Reading input data for simulation 1.
------------------------------------

	DATABASE C:\Program Files (x86)\USGS\Phreeqc Interactive 3.1.4-8929\database\sit.dat
	EXCHANGE_MASTER_SPECIES
	Clay_i	Clay_i-
	EXCHANGE_SPECIES
	Clay_i- = Clay_i-
	    log_k 0.0
	Clay_i- + Na+ = NaClay_i
	    log_k 0.0
	2Clay_i- + Ra+2 = Clay_i2Ra
	    log_k 5
	EXCHANGE 1
	   NaClay_i 2.8E-5 #Calculated from the CEC listed by Clays.org for STX-1b CaMont
	GAS_PHASE 1
	    fixed_pressure
	    pressure 1
	    volume 1
	    temperature 25
	    CO2(g)    0.00033
	    O2(g)     0.26
	SOLUTION 1
	    temp      25
	    pH        5
	    pe        4
	    redox     pe
	    units     mol/l
	    density   1
	    Cl        0.01 charge
	    Na        0.01
	    Ra        5.979e-11
	    water    0.1 # kg
	END
-------------------------------------------
Beginning of initial solution calculations.
-------------------------------------------

Initial solution 1.	

-----------------------------Solution composition------------------------------

	Elements           Molality       Moles

	Cl                1.002e-02   1.002e-03  Charge balance
	Na                1.001e-02   1.001e-03
	Ra                5.982e-11   5.982e-12

----------------------------Description of solution----------------------------

                                       pH  =   5.000    
                                       pe  =   4.000    
                        Activity of water  =   1.000
                           Ionic strength  =   1.002e-02
                       Mass of water (kg)  =   1.000e-01
                 Total alkalinity (eq/kg)  =  -1.106e-05
                    Total carbon (mol/kg)  =   0.000e+00
                       Total CO2 (mol/kg)  =   0.000e+00
                         Temperature (°C)  =  25.00
                  Electrical balance (eq)  =   2.446e-15
 Percent error, 100*(Cat-|An|)/(Cat+|An|)  =   0.00
                               Iterations  =  13
                         Gamma iterations  =   3
                      Osmotic coefficient  =   0.96863
                                  Total H  = 1.110198e+01
                                  Total O  = 5.550991e+00

----------------------------Distribution of species----------------------------

                                               Log       Log       Log    mole V
   Species          Molality    Activity  Molality  Activity     Gamma   cm³/mol

   H+              1.105e-05   1.000e-05    -4.957    -5.000    -0.043      0.00
   OH-             1.106e-09   9.997e-10    -8.956    -9.000    -0.044     (0)  
   H2O             5.551e+01   9.997e-01     1.744    -0.000     0.000     18.07
Cl            1.002e-02
   Cl-             1.002e-02   9.050e-03    -1.999    -2.043    -0.044     (0)  
   HCl             1.765e-08   1.765e-08    -7.753    -7.753     0.000     (0)  
   RaCl+           3.148e-13   2.842e-13   -12.502   -12.546    -0.044     (0)  
   RaCl2           2.572e-15   2.572e-15   -14.590   -14.590     0.000     (0)  
   Cl2             0.000e+00   0.000e+00   -43.297   -43.297     0.000     (0)  
   ClO4-           0.000e+00   0.000e+00  -118.134  -118.134     0.000     (0)  
H(0)          1.664e-21
   H2              8.318e-22   8.318e-22   -21.080   -21.080     0.000     (0)  
Na            1.001e-02
   Na+             1.001e-02   9.040e-03    -2.000    -2.044    -0.044     (0)  
O(0)          0.000e+00
   O2              0.000e+00   0.000e+00   -49.980   -49.980     0.000     (0)  
Ra            5.982e-11
   Ra+2            5.951e-11   3.954e-11   -10.225   -10.403    -0.178     (0)  
   RaCl+           3.148e-13   2.842e-13   -12.502   -12.546    -0.044     (0)  
   RaCl2           2.572e-15   2.572e-15   -14.590   -14.590     0.000     (0)  
   Ra(OH)+         1.417e-19   1.279e-19   -18.849   -18.893    -0.044     (0)  
   Ra(OH)2         3.363e-29   3.363e-29   -28.473   -28.473     0.000     (0)  

------------------------------Saturation indices-------------------------------

  Phase               SI** log IAP   log K(298 K,   1 atm)

  Cl2(g)          -42.07      3.91   45.98  Cl2
  H2(g)           -18.00    -18.00    0.00  H2
  H2O(g)           -1.50    -42.99  -41.49  H2O
  Halite           -5.68     -4.09    1.59  NaCl
  HCl(g)          -13.33     -7.04    6.29  HCl
  Na(cr)          -51.93     -6.04   45.89  Na
  Na2O(cr)        -61.55      5.91   67.46  Na2O
  O2(g)           -47.08    -49.98   -2.90  O2
  Ra(cr)         -116.84    -18.40   98.44  Ra
  Ra(OH)2(s)      -31.39     -0.40   30.99  Ra(OH)2
  RaCl2:2H2O(s)   -13.76    -14.49   -0.73  RaCl2:2H2O

**For a gas, SI = log10(fugacity). Fugacity = pressure * phi / 1 atm.
  For ideal gases, phi = 1.

-----------------------------------------
Beginning of batch-reaction calculations.
-----------------------------------------

Reaction step 1.

Using solution 1.	
Using exchange 1.	
Using gas phase 1.	

-----------------------------------Gas phase-----------------------------------

Total pressure:  1.00      atmospheres 
    Gas volume:   2.57e-01 liters
  Molar volume:   2.45e+01 liters/mole

                                                        Moles in gas
                                            ----------------------------------
Component                log P           P     Initial       Final       Delta

CO2(g)                   -3.02   9.601e-04   1.349e-05   1.009e-05  -3.396e-06
O2(g)                    -0.00   9.990e-01   1.063e-02   1.050e-02  -1.258e-04

-----------------------------Exchange composition------------------------------

Clay_i           2.800e-05 mol

	                               Equiv-    Equivalent      Log 
	Species             Moles      alents      Fraction     Gamma

	NaClay_i          2.800e-05   2.800e-05   1.000e+00    -0.044
	Clay_i2Ra         5.982e-12   1.196e-11   4.273e-07    -0.178

-----------------------------Solution composition------------------------------

	Elements           Molality       Moles

	C                 3.396e-05   3.396e-06
	Cl                1.002e-02   1.002e-03
	Na                1.001e-02   1.001e-03
	Ra                4.301e-16   4.301e-17

----------------------------Description of solution----------------------------

                                       pH  =   4.947      Charge balance
                                       pe  =  15.823      Adjusted to redox equilibrium
                        Activity of water  =   1.000
                           Ionic strength  =   1.002e-02
                       Mass of water (kg)  =   1.000e-01
                 Total alkalinity (eq/kg)  =  -1.106e-05
                       Total CO2 (mol/kg)  =   3.396e-05
                         Temperature (°C)  =  25.00
                  Electrical balance (eq)  =   2.448e-15
 Percent error, 100*(Cat-|An|)/(Cat+|An|)  =   0.00
                               Iterations  =  23
                         Gamma iterations  =   2
                      Osmotic coefficient  =   0.97053
                                  Total H  = 1.110198e+01
                                  Total O  = 5.551250e+00

----------------------------Distribution of species----------------------------

                                               Log       Log       Log    mole V
   Species          Molality    Activity  Molality  Activity     Gamma   cm³/mol

   H+              1.247e-05   1.129e-05    -4.904    -4.947    -0.043      0.00
   OH-             9.795e-10   8.851e-10    -9.009    -9.053    -0.044     (0)  
   H2O             5.551e+01   9.996e-01     1.744    -0.000     0.000     18.07
C(-4)         0.000e+00
   CH4             0.000e+00   0.000e+00  -149.137  -149.137     0.000     (0)  
C(4)          3.396e-05
   CO2             3.253e-05   3.253e-05    -4.488    -4.488     0.000     (0)  
   HCO3-           1.425e-06   1.286e-06    -5.846    -5.891    -0.044     (0)  
   Na(HCO3)        6.539e-09   6.539e-09    -8.185    -8.185     0.000     (0)  
   CO3-2           8.032e-12   5.327e-12   -11.095   -11.274    -0.178     (0)  
   Na(CO3)-        9.932e-13   8.967e-13   -12.003   -12.047    -0.044     (0)  
   Ra(HCO3)+       1.576e-21   1.422e-21   -20.803   -20.847    -0.044     (0)  
   Ra(CO3)         4.789e-25   4.789e-25   -24.320   -24.320     0.000     (0)  
   CO              0.000e+00   0.000e+00   -51.107   -51.107     0.000     (0)  
Cl            1.002e-02
   Cl-             1.002e-02   9.050e-03    -1.999    -2.043    -0.044     (0)  
   HCl             1.993e-08   1.993e-08    -7.701    -7.701     0.000     (0)  
   RaCl+           2.263e-18   2.043e-18   -17.645   -17.690    -0.044     (0)  
   Cl2             2.233e-20   2.233e-20   -19.651   -19.651     0.000     (0)  
   RaCl2           1.849e-20   1.849e-20   -19.733   -19.733     0.000     (0)  
   ClO4-           1.175e-24   1.061e-24   -23.930   -23.974    -0.044     (0)  
H(0)          0.000e+00
   H2              0.000e+00   0.000e+00   -44.620   -44.620     0.000     (0)  
Na            1.001e-02
   Na+             1.001e-02   9.040e-03    -2.000    -2.044    -0.044     (0)  
   Na(HCO3)        6.539e-09   6.539e-09    -8.185    -8.185     0.000     (0)  
   Na(CO3)-        9.932e-13   8.967e-13   -12.003   -12.047    -0.044     (0)  
O(0)          2.515e-03
   O2              1.258e-03   1.258e-03    -2.900    -2.900     0.000     (0)  
Ra            4.301e-16
   Ra+2            4.278e-16   2.843e-16   -15.369   -15.546    -0.178     (0)  
   RaCl+           2.263e-18   2.043e-18   -17.645   -17.690    -0.044     (0)  
   RaCl2           1.849e-20   1.849e-20   -19.733   -19.733     0.000     (0)  
   Ra(HCO3)+       1.576e-21   1.422e-21   -20.803   -20.847    -0.044     (0)  
   Ra(OH)+         9.018e-25   8.142e-25   -24.045   -24.089    -0.044     (0)  
   Ra(CO3)         4.789e-25   4.789e-25   -24.320   -24.320     0.000     (0)  
   Ra(OH)2         1.896e-34   1.896e-34   -33.722   -33.722     0.000     (0)  

------------------------------Saturation indices-------------------------------

  Phase               SI** log IAP   log K(298 K,   1 atm)

  C(cr)           -72.10   -104.25  -32.15  C
  CH4(g)         -146.28   -187.33  -41.05  CH4
  Cl2(g)          -18.42     27.56   45.98  Cl2
  CO(g)           -48.07    -62.71  -14.64  CO
  CO2(g)           -3.02    -21.17  -18.15  CO2
  H2(g)           -41.54    -41.54    0.00  H2
  H2O(g)           -1.50    -42.99  -41.49  H2O
  Halite           -5.68     -4.09    1.59  NaCl
  HCl(g)          -13.28     -6.99    6.29  HCl
  Na(cr)          -63.76    -17.87   45.89  Na
  Na2(CO3)(cr)    -16.48    -15.36    1.12  Na2(CO3)
  Na2CO3:7H2O(s)  -14.90    -15.36   -0.46  Na2CO3:7H2O
  Na2O(cr)        -61.65      5.81   67.46  Na2O
  Nahcolite        -7.52    -18.26  -10.74  Na(HCO3)
  Natron          -14.53    -15.36   -0.83  Na2(CO3):10H2O
  O2(g)            -0.00     -2.90   -2.90  O2
  Ra(CO3)(s)      -18.52    -26.82   -8.30  Ra(CO3)
  Ra(cr)         -145.63    -47.19   98.44  Ra
  Ra(OH)2(s)      -36.64     -5.65   30.99  Ra(OH)2
  RaCl2:2H2O(s)   -18.90    -19.63   -0.73  RaCl2:2H2O
  Thermonatrite   -15.84    -15.36    0.48  Na2(CO3):H2O
  Trona           -22.25    -33.63  -11.38  Na3H(CO3)2:2H2O

**For a gas, SI = log10(fugacity). Fugacity = pressure * phi / 1 atm.
  For ideal gases, phi = 1.

------------------
End of simulation.
------------------

------------------------------------
Reading input data for simulation 2.
------------------------------------

	USE solution 1
	 USE GAS_PHASE 1
	 USE EXCHANGE 1
	SELECTED_OUTPUT
	    reset                false
	    totals               Ra 
	    molalities 	  Ra+2 RaCl+ RaCl2 Ra(OH)+ Ra(OH)2 Ra(HCO3)+ Ra(CO3) Clay_i2Ra
	    percent_error        true
	    ph                   true
	END
-----------------------------------------
Beginning of batch-reaction calculations.
-----------------------------------------

Reaction step 1.

Using solution 1.	
Using exchange 1.	
Using gas phase 1.	

-----------------------------------Gas phase-----------------------------------

Total pressure:  1.00      atmospheres 
    Gas volume:   2.57e-01 liters
  Molar volume:   2.45e+01 liters/mole

                                                        Moles in gas
                                            ----------------------------------
Component                log P           P     Initial       Final       Delta

CO2(g)                   -3.02   9.601e-04   1.349e-05   1.009e-05  -3.396e-06
O2(g)                    -0.00   9.990e-01   1.063e-02   1.050e-02  -1.258e-04

-----------------------------Exchange composition------------------------------

Clay_i           2.800e-05 mol

	                               Equiv-    Equivalent      Log 
	Species             Moles      alents      Fraction     Gamma

	NaClay_i          2.800e-05   2.800e-05   1.000e+00    -0.044
	Clay_i2Ra         5.982e-12   1.196e-11   4.273e-07    -0.178

-----------------------------Solution composition------------------------------

	Elements           Molality       Moles

	C                 3.396e-05   3.396e-06
	Cl                1.002e-02   1.002e-03
	Na                1.001e-02   1.001e-03
	Ra                4.301e-16   4.301e-17

----------------------------Description of solution----------------------------

                                       pH  =   4.947      Charge balance
                                       pe  =  15.823      Adjusted to redox equilibrium
                        Activity of water  =   1.000
                           Ionic strength  =   1.002e-02
                       Mass of water (kg)  =   1.000e-01
                 Total alkalinity (eq/kg)  =  -1.106e-05
                       Total CO2 (mol/kg)  =   3.396e-05
                         Temperature (°C)  =  25.00
                  Electrical balance (eq)  =   2.448e-15
 Percent error, 100*(Cat-|An|)/(Cat+|An|)  =   0.00
                               Iterations  =  23
                         Gamma iterations  =   2
                      Osmotic coefficient  =   0.97053
                                  Total H  = 1.110198e+01
                                  Total O  = 5.551250e+00

----------------------------Distribution of species----------------------------

                                               Log       Log       Log    mole V
   Species          Molality    Activity  Molality  Activity     Gamma   cm³/mol

   H+              1.247e-05   1.129e-05    -4.904    -4.947    -0.043      0.00
   OH-             9.795e-10   8.851e-10    -9.009    -9.053    -0.044     (0)  
   H2O             5.551e+01   9.996e-01     1.744    -0.000     0.000     18.07
C(-4)         0.000e+00
   CH4             0.000e+00   0.000e+00  -149.137  -149.137     0.000     (0)  
C(4)          3.396e-05
   CO2             3.253e-05   3.253e-05    -4.488    -4.488     0.000     (0)  
   HCO3-           1.425e-06   1.286e-06    -5.846    -5.891    -0.044     (0)  
   Na(HCO3)        6.539e-09   6.539e-09    -8.185    -8.185     0.000     (0)  
   CO3-2           8.032e-12   5.327e-12   -11.095   -11.274    -0.178     (0)  
   Na(CO3)-        9.932e-13   8.967e-13   -12.003   -12.047    -0.044     (0)  
   Ra(HCO3)+       1.576e-21   1.422e-21   -20.803   -20.847    -0.044     (0)  
   Ra(CO3)         4.789e-25   4.789e-25   -24.320   -24.320     0.000     (0)  
   CO              0.000e+00   0.000e+00   -51.107   -51.107     0.000     (0)  
Cl            1.002e-02
   Cl-             1.002e-02   9.050e-03    -1.999    -2.043    -0.044     (0)  
   HCl             1.993e-08   1.993e-08    -7.701    -7.701     0.000     (0)  
   RaCl+           2.263e-18   2.043e-18   -17.645   -17.690    -0.044     (0)  
   Cl2             2.233e-20   2.233e-20   -19.651   -19.651     0.000     (0)  
   RaCl2           1.849e-20   1.849e-20   -19.733   -19.733     0.000     (0)  
   ClO4-           1.175e-24   1.061e-24   -23.930   -23.974    -0.044     (0)  
H(0)          0.000e+00
   H2              0.000e+00   0.000e+00   -44.620   -44.620     0.000     (0)  
Na            1.001e-02
   Na+             1.001e-02   9.040e-03    -2.000    -2.044    -0.044     (0)  
   Na(HCO3)        6.539e-09   6.539e-09    -8.185    -8.185     0.000     (0)  
   Na(CO3)-        9.932e-13   8.967e-13   -12.003   -12.047    -0.044     (0)  
O(0)          2.515e-03
   O2              1.258e-03   1.258e-03    -2.900    -2.900     0.000     (0)  
Ra            4.301e-16
   Ra+2            4.278e-16   2.843e-16   -15.369   -15.546    -0.178     (0)  
   RaCl+           2.263e-18   2.043e-18   -17.645   -17.690    -0.044     (0)  
   RaCl2           1.849e-20   1.849e-20   -19.733   -19.733     0.000     (0)  
   Ra(HCO3)+       1.576e-21   1.422e-21   -20.803   -20.847    -0.044     (0)  
   Ra(OH)+         9.018e-25   8.142e-25   -24.045   -24.089    -0.044     (0)  
   Ra(CO3)         4.789e-25   4.789e-25   -24.320   -24.320     0.000     (0)  
   Ra(OH)2         1.896e-34   1.896e-34   -33.722   -33.722     0.000     (0)  

------------------------------Saturation indices-------------------------------

  Phase               SI** log IAP   log K(298 K,   1 atm)

  C(cr)           -72.10   -104.25  -32.15  C
  CH4(g)         -146.28   -187.33  -41.05  CH4
  Cl2(g)          -18.42     27.56   45.98  Cl2
  CO(g)           -48.07    -62.71  -14.64  CO
  CO2(g)           -3.02    -21.17  -18.15  CO2
  H2(g)           -41.54    -41.54    0.00  H2
  H2O(g)           -1.50    -42.99  -41.49  H2O
  Halite           -5.68     -4.09    1.59  NaCl
  HCl(g)          -13.28     -6.99    6.29  HCl
  Na(cr)          -63.76    -17.87   45.89  Na
  Na2(CO3)(cr)    -16.48    -15.36    1.12  Na2(CO3)
  Na2CO3:7H2O(s)  -14.90    -15.36   -0.46  Na2CO3:7H2O
  Na2O(cr)        -61.65      5.81   67.46  Na2O
  Nahcolite        -7.52    -18.26  -10.74  Na(HCO3)
  Natron          -14.53    -15.36   -0.83  Na2(CO3):10H2O
  O2(g)            -0.00     -2.90   -2.90  O2
  Ra(CO3)(s)      -18.52    -26.82   -8.30  Ra(CO3)
  Ra(cr)         -145.63    -47.19   98.44  Ra
  Ra(OH)2(s)      -36.64     -5.65   30.99  Ra(OH)2
  RaCl2:2H2O(s)   -18.90    -19.63   -0.73  RaCl2:2H2O
  Thermonatrite   -15.84    -15.36    0.48  Na2(CO3):H2O
  Trona           -22.25    -33.63  -11.38  Na3H(CO3)2:2H2O

**For a gas, SI = log10(fugacity). Fugacity = pressure * phi / 1 atm.
  For ideal gases, phi = 1.

------------------
End of simulation.
------------------

------------------------------------
Reading input data for simulation 3.
------------------------------------

------------------------------
End of Run after 0.17 Seconds.
------------------------------

